19

O      5.0031      2.1722      2.8211
O      9.2333     -0.3513      3.3408
H      9.5553      1.3754      7.2383
H      6.0925      4.0716      4.6274
H     10.4992     -0.8302      5.6953
H      8.3270      1.2317      3.4992
H      3.3252      2.1563      4.0754
H      3.1061      3.5297      4.8471
H      7.2151      2.6122      7.3984
H      5.7807      2.7805      5.8370
N      3.7037      2.9335      4.5369
C      9.5208     -0.5941      4.9555
C      4.9332      2.4604      3.9752
C      8.1313      1.1213      4.4891
C      8.7632      0.4443      5.5967
C      6.0733      2.8572      4.7957
C      7.5659      1.9572      6.6416
C      8.5532      1.0841      6.8071
C      7.2831      2.1230      5.1722
19

O      5.0248      2.1818      2.8114
O      9.2497     -0.3384      3.3392
H      9.5984      1.3856      7.1101
H      6.0460      4.0222      4.6583
H     10.5133     -0.7286      5.7394
H      8.3586      1.1991      3.5208
H      3.3479      2.2156      4.0804
H      3.1429      3.4828      4.8784
H      7.2492      2.6346      7.3634
H      5.7268      2.8274      5.8390
N      3.7016      2.9546      4.5535
C      9.4972     -0.5829      4.9875
C      4.9302      2.4529      3.9984
C      8.1358      1.0942      4.4916
C      8.7821      0.4540      5.5984
C      6.0996      2.8766      4.7835
C      7.5560      1.9324      6.6363
C      8.5610      1.1063      6.7939
C      7.2698      2.1209      5.1888
19

O      5.0458      2.1916      2.8029
O      9.2665     -0.3282      3.3401
H      9.6336      1.3912      6.9977
H      5.9974      3.9602      4.6856
H     10.5076     -0.6371      5.7672
H      8.4246      1.1867      3.5134
H      3.3358      2.2585      4.0641
H      3.1116      3.5175      4.9568
H      7.2922      2.6625      7.3337
H      5.6552      2.8755      5.8516
N      3.7071      2.9692      4.5662
C      9.4746     -0.5713      5.0196
C      4.9274      2.4487      4.0219
C      8.1349      1.0704      4.4984
C      8.8016      0.4602      5.5947
C      6.1261      2.8964      4.7714
C      7.5435      1.9112      6.6268
C      8.5737      1.1259      6.7826
C      7.2572      2.1164      5.2070
19

O      5.0657      2.2018      2.7966
O      9.2834     -0.3207      3.3436
H      9.6635      1.3968      6.9071
H      5.9474      3.9066      4.7088
H     10.4805     -0.5623      5.7796
H      8.5192      1.1934      3.4897
H      3.2883      2.2846      4.0244
H      3.0453      3.5992      5.0654
H      7.3439      2.6933      7.3091
H      5.5722      2.9216      5.8696
N      3.7180      2.9795      4.5757
C      9.4546     -0.5607      5.0514
C      4.9250      2.4475      4.0444
C      8.1282      1.0507      4.5078
C      8.8205      0.4638      5.5864
C      6.1513      2.9147      4.7599
C      7.5278      1.8944      6.6138
C      8.5916      1.1425      6.7733
C      7.2452      2.1090      5.2260
19

O      5.0844      2.2125      2.7928
O      9.3004     -0.3158      3.3494
H      9.6896      1.4061      6.8414
H      5.8947      3.8853      4.7293
H     10.4326     -0.5095      5.7785
H      8.6313      1.2150      3.4685
H      3.2157      2.3084      3.9709
H      2.9922      3.6781      5.1684
H      7.4030      2.7233      7.2880
H      5.4842      2.9620      5.8898
N      3.7300      2.9880      4.5837
C      9.4383     -0.5528      5.0820
C      4.9238      2.4487      4.0652
C      8.1153      1.0359      4.5174
C      8.8373      0.4660      5.5748
C      6.1746      2.9294      4.7492
C      7.5091      1.8821      6.5984
C      8.6148      1.1557      6.7660
C      7.2337      2.0983      5.2453
