16

O      5.0445      1.8400      3.1655
O      9.0151     -0.5698      3.5876
H      9.2518      0.8945      7.4046
H     10.4529     -0.8552      5.1259
H      3.3413      2.9782      5.3947
H      3.1093      3.4588      3.9191
H      7.6625      2.9143      7.5186
N      3.7124      3.1460      4.6342
C      9.6032     -0.1797      4.6250
C      4.9027      2.7445      4.1879
C      7.7607      1.1637      4.5802
C      8.6665      0.5745      5.3182
C      5.9209      2.6100      5.4439
C      8.0057      2.5733      6.4844
C      8.3608      1.0670      6.7904
C      7.2575      2.4245      5.2381
16

O      5.0355      1.8349      3.1691
O      9.0208     -0.5381      3.5728
H      9.1760      0.8584      7.3905
H     10.4210     -0.7913      5.0891
H      3.2873      2.9577      5.4828
H      3.0438      3.3804      3.7874
H      7.6230      2.9165      7.5246
N      3.7067      3.1789      4.6411
C      9.6013     -0.1822      4.6350
C      4.9196      2.7225      4.2191
C      7.7647      1.1507      4.6158
C      8.6795      0.5578      5.3113
C      5.9188      2.6243      5.4532
C      8.0159      2.5936      6.4898
C      8.3771      1.0708      6.7924
C      7.2601      2.4308      5.2003
16

O      5.0260      1.8339      3.1736
O      9.0281     -0.5064      3.5542
H      9.1152      0.8097      7.4018
H     10.3780     -0.7366      5.0552
H      3.2316      2.9325      5.6010
H      3.0027      3.2966      3.6964
H      7.5706      2.9179      7.5105
N      3.7018      3.2120      4.6446
C      9.5997     -0.1881      4.6465
C      4.9393      2.6977      4.2503
C      7.7635      1.1429      4.6488
C      8.6942      0.5412      5.3129
C      5.9155      2.6337      5.4552
C      8.0266      2.6126      6.4942
C      8.3928      1.0767      6.7906
C      7.2642      2.4364      5.1664
16

O      5.0161      1.8370      3.1792
O      9.0368     -0.4754      3.5321
H      9.0838      0.7459      7.4480
H     10.3429     -0.7068      5.0341
H      3.1972      2.9149      5.7016
H      2.9978      3.2097      3.6712
H      7.5089      2.9175      7.4756
N      3.6963      3.2435      4.6471
C      9.5975     -0.1966      4.6578
C      4.9606      2.6711      4.2811
C      7.7567      1.1403      4.6774
C      8.7099      0.5253      5.3237
C      5.9103      2.6407      5.4514
C      8.0370      2.6293      6.4974
C      8.4066      1.0848      6.7842
C      7.2698      2.4417      5.1371
16

O      5.0056      1.8443      3.1862
O      9.0469     -0.4455      3.5070
H      9.0741      0.6709      7.5199
H     10.3362     -0.7161      5.0350
H      3.1923      2.9105      5.7662
H      3.0297      3.1220      3.7148
H      7.4425      2.9150      7.4204
N      3.6904      3.2722      4.6498
C      9.5937     -0.2066      4.6671
C      4.9820      2.6433      4.3114
C      7.7444      1.1425      4.7008
C      8.7254      0.5111      5.3433
C      5.9034      2.6474      5.4436
C      8.0464      2.6430      6.4989
C      8.4188      1.0948      6.7746
C      7.2766      2.4470      5.1132
16

O      4.9947      1.8553      3.1944
O      9.0579     -0.4172      3.4792
H      9.0689      0.5955      7.5953
H     10.3613     -0.7653      5.0574
H      3.2177      2.9210      5.7900
H      3.0902      3.0373      3.8093
H      7.3744      2.9106      7.3484
N      3.6852      3.2974      4.6530
C      9.5883     -0.2178      4.6737
C      5.0028      2.6145      4.3409
C      7.7276      1.1488      4.7190
C      8.7395      0.4997      5.3703
C      5.8954      2.6544      5.4327
C      8.0541      2.6528      6.4987
C      8.4307      1.1056      6.7640
C      7.2845      2.4527      5.0951
16

O      4.9836      1.8697      3.2033
O      9.0696     -0.3910      3.4492
H      9.0571      0.5283      7.6546
H     10.3999     -0.8403      5.0910
H      3.2715      2.9465      5.7725
H      3.1610      2.9576      3.9261
H      7.3081      2.9055      7.2645
N      3.6821      3.3187      4.6578
C      9.5827     -0.2308      4.6780
C      5.0223      2.5852      4.3691
C      7.7073      1.1582      4.7324
C      8.7514      0.4915      5.4031
C      5.8873      2.6618      5.4196
C      8.0593      2.6582      6.4964
C      8.4428      1.1163      6.7543
C      7.2934      2.4591      5.0834
16

O      4.9723      1.8869      3.2128
O      9.0822     -0.3670      3.4177
H      9.0342      0.4736      7.6867
H     10.4336     -0.9225      5.1241
H      3.3504      2.9868      5.7153
H      3.2166      2.8744      4.0308
H      7.2462      2.9010      7.1745
N      3.6830      3.3367      4.6661
C      9.5782     -0.2466      4.6808
C      5.0398      2.5555      4.3952
C      7.6848      1.1697      4.7414
C      8.7604      0.4864      5.4393
C      5.8800      2.6695      5.4053
C      8.0615      2.6585      6.4917
C      8.4551      1.1262      6.7469
C      7.3033      2.4665      5.0785
16

O      4.9609      1.9063      3.2226
O      9.0965     -0.3447      3.3874
H      9.0002      0.4337      7.6883
H     10.4536     -1.0006      5.1503
H      3.4478      3.0395      5.6288
H      3.2404      2.7731      4.1066
H      7.1909      2.8989      7.0844
N      3.6893      3.3524      4.6787
C      9.5751     -0.2655      4.6829
C      5.0543      2.5262      4.4180
C      7.6612      1.1819      4.7465
C      8.7662      0.4839      5.4764
C      5.8750      2.6770      5.3904
C      8.0606      2.6537      6.4844
C      8.4670      1.1350      6.7426
C      7.3141      2.4755      5.0803
16

O      4.9494      1.9274      3.2330
O      9.1147     -0.3233      3.3624
H      8.9574      0.4103      7.6610
H     10.4581     -1.0721      5.1681
H      3.5511      3.0958      5.5477
H      3.2374      2.6570      4.1636
H      7.1445      2.9001      7.0004
N      3.7005      3.3659      4.6928
C      9.5728     -0.2872      4.6845
C      5.0648      2.4978      4.4360
C      7.6375      1.1939      4.7480
C      8.7690      0.4833      5.5119
C      5.8743      2.6833      5.3748
C      8.0571      2.6448      6.4744
C      8.4780      1.1424      6.7420
C      7.3259      2.4865      5.0886
16

O      4.9376      1.9499      3.2449
O      9.1377     -0.3023      3.3439
H      8.9097      0.4057      7.6105
H     10.4501     -1.1388      5.1786
H      3.6469      3.1404      5.5328
H      3.2245      2.5513      4.2237
H      7.1090      2.9055      6.9279
N      3.7158      3.3762      4.7028
C      9.5706     -0.3110      4.6861
C      5.0699      2.4705      4.4477
C      7.6147      1.2049      4.7460
C      8.7692      0.4836      5.5432
C      5.8801      2.6878      5.3580
C      8.0517      2.6326      6.4619
C      8.4875      1.1485      6.7456
C      7.3386      2.4996      5.1031
16

O      4.9257      1.9741      3.2597
O      9.1635     -0.2830      3.3292
H      8.8629      0.4206      7.5460
H     10.4331     -1.2028      5.1832
H      3.7326      3.1689      5.6152
H      3.2150      2.4813      4.2995
H      7.0866      2.9154      6.8721
N      3.7337      3.3821      4.7059
C      9.5679     -0.3360      4.6880
C      5.0691      2.4445      4.4525
C      7.5933      1.2144      4.7408
C      8.7672      0.4840      5.5684
C      5.8932      2.6916      5.3409
C      8.0452      2.6183      6.4472
C      8.4952      1.1537      6.7535
C      7.3522      2.5146      5.1226
16

O      4.9140      1.9999      3.2772
O      9.1902     -0.2666      3.3165
H      8.8247      0.4510      7.4824
H     10.4102     -1.2637      5.1827
H      3.8124      3.1953      5.7519
H      3.2137      2.4580      4.3929
H      7.0791      2.9296      6.8361
N      3.7529      3.3817      4.7053
C      9.5641     -0.3613      4.6902
C      5.0624      2.4202      4.4507
C      7.5738      1.2224      4.7329
C      8.7634      0.4836      5.5860
C      5.9126      2.6961      5.3261
C      8.0384      2.6030      6.4312
C      8.5006      1.1584      6.7648
C      7.3668      2.5308      5.1457
16

O      4.9026      2.0266      3.2949
O      9.2175     -0.2535      3.3058
H      8.8053      0.4846      7.4404
H     10.3830     -1.3200      5.1773
H      3.8848      3.2313      5.8830
H      3.2188      2.4790      4.4987
H      7.0874      2.9475      6.8205
N      3.7731      3.3746      4.7055
C      9.5590     -0.3864      4.6920
C      5.0507      2.3977      4.4440
C      7.5566      1.2288      4.7226
C      8.7581      0.4822      5.5951
C      5.9363      2.7023      5.3151
C      8.0324      2.5879      6.4151
C      8.5030      1.1638      6.7778
C      7.3818      2.5473      5.1706
16

O      4.8913      2.0529      3.3092
O      9.2453     -0.2437      3.2981
H      8.8144      0.5056      7.4410
H     10.3520     -1.3689      5.1661
H      3.9470      3.2786      5.9773
H      3.2236      2.5305      4.6078
H      7.1112      2.9691      6.8254
N      3.7944      3.3616      4.7089
C      9.5522     -0.4104      4.6929
C      5.0357      2.3773      4.4359
C      7.5418      1.2340      4.7105
C      8.7513      0.4798      5.5956
C      5.9621      2.7106      5.3084
C      8.0281      2.5740      6.4004
C      8.5019      1.1710      6.7901
C      7.3969      2.5630      5.1951
16

O      4.7900      2.2313      3.0583
O      9.5458     -0.2627      3.3726
H      9.1722      0.8740      7.5633
H     10.3460     -1.0509      5.0013
H      4.3453      4.1389      5.4380
H      3.0796      2.9482      5.1171
H      7.8860      3.3093      7.2654
N      4.0016      3.0809      4.9336
C      9.3897     -0.5393      4.5924
C      4.9303      2.2727      4.6166
C      7.5207      1.2601      4.5269
C      8.6095      0.4951      5.3135
C      6.1333      2.8889      5.3132
C      8.1340      2.5652      6.5109
C      8.4071      1.1244      6.8414
C      7.4792      2.5683      5.1645
16

O      4.7851      2.2447      3.0192
O      9.5763     -0.2680      3.3858
H      9.1447      0.9277      7.4651
H     10.4277     -0.9427      5.0304
H      4.3912      4.1959      5.3988
H      3.0956      2.9724      5.1223
H      7.9744      3.3382      7.2481
N      4.0033      3.0569      4.9699
C      9.3678     -0.5425      4.5744
C      4.9389      2.2625      4.6384
C      7.5329      1.2624      4.5099
C      8.5892      0.5092      5.2791
C      6.1388      2.9099      5.3132
C      8.1507      2.5749      6.5286
C      8.3969      1.1029      6.8364
C      7.4837      2.5535      5.1499
