10

O      7.0481      5.6532      3.9758
O      9.5998      1.9946      2.7119
H      7.0606      2.6082      2.7566
H      7.2630      6.6785      2.1279
H      7.7569      3.4407      3.6439
H      7.8021      4.6090      0.8525
C      7.6514      4.6966      1.7988
C      9.0258      2.8100      2.0130
C      7.2646      5.5922      2.7357
C      7.7524      3.3364      2.5263
10

O      7.0621      5.6375      3.9640
O      9.6226      1.9734      2.7025
H      7.1136      2.5961      2.6636
H      7.2718      6.5943      2.1404
H      7.7300      3.4720      3.6043
H      7.8114      4.6575      0.7862
C      7.6573      4.7008      1.8312
C      9.0462      2.8026      2.0121
C      7.2787      5.5935      2.7421
C      7.7597      3.3754      2.5082
10

O      7.0771      5.6214      3.9528
O      9.6456      1.9522      2.6942
H      7.1363      2.5661      2.5541
H      7.2789      6.5076      2.1630
H      7.7199      3.5111      3.5701
H      7.8355      4.7133      0.7260
C      7.6646      4.7003      1.8667
C      9.0675      2.7964      2.0130
C      7.2926      5.5993      2.7476
C      7.7697      3.4160      2.4878
10

O      7.0928      5.6047      3.9433
O      9.6687      1.9314      2.6874
H      7.1370      2.5291      2.4309
H      7.2833      6.4411      2.1861
H      7.7241      3.5546      3.5443
H      7.8675      4.7764      0.6970
C      7.6740      4.6956      1.9009
C      9.0895      2.7914      2.0158
C      7.3061      5.6091      2.7525
C      7.7824      3.4549      2.4662
10

O      7.1087      5.5878      3.9367
O      9.6920      1.9111      2.6820
H      7.1260      2.4993      2.2998
H      7.2836      6.4197      2.1958
H      7.7394      3.5981      3.5274
H      7.9020      4.8444      0.7075
C      7.6856      4.6886      1.9306
C      9.1120      2.7875      2.0207
C      7.3193      5.6215      2.7574
C      7.7973      3.4882      2.4450
10

O      7.1248      5.5706      3.9338
O      9.7155      1.8916      2.6783
H      7.1105      2.4855      2.1687
H      7.2791      6.4550      2.1844
H      7.7626      3.6376      3.5179
H      7.9357      4.9135      0.7574
C      7.6994      4.6825      1.9533
C      9.1346      2.7844      2.0280
C      7.3322      5.6356      2.7624
C      7.8143      3.5120      2.4257
10

O      7.1408      5.5534      3.9349
O      9.7394      1.8730      2.6764
H      7.0940      2.4913      2.0451
H      7.2706      6.5345      2.1602
H      7.7908      3.6706      3.5122
H      7.9673      4.9792      0.8425
C      7.7152      4.6804      1.9676
C      9.1565      2.7818      2.0377
C      7.3448      5.6519      2.7665
C      7.8332      3.5234      2.4098
10

O      7.1566      5.5363      3.9399
O      9.7636      1.8553      2.6766
H      7.0787      2.5177      1.9358
H      7.2608      6.6320      2.1387
H      7.8217      3.6958      3.5065
H      7.9979      5.0378      0.9544
C      7.7325      4.6850      1.9732
C      9.1768      2.7791      2.0502
C      7.3570      5.6715      2.7687
C      7.8539      3.5209      2.3985
10

O      7.1720      5.5196      3.9481
O      9.7883      1.8387      2.6790
H      7.0664      2.5646      1.8472
H      7.2526      6.7242      2.1315
H      7.8533      3.7126      3.4982
H      8.0305      5.0895      1.0744
C      7.7508      4.6971      1.9713
C      9.1948      2.7755      2.0656
C      7.3688      5.6948      2.7688
C      7.8760      3.5051      2.3921
10

O      7.1871      5.5034      3.9589
O      9.8135      1.8231      2.6836
H      7.0590      2.6304      1.7853
H      7.2481      6.7963      2.1446
H      7.8832      3.7196      3.4872
H      8.0731      5.1427      1.1689
C      7.7692      4.7157      1.9653
C      9.2095      2.7706      2.0844
C      7.3803      5.7214      2.7670
C      7.8986      3.4778      2.3904
10

O      7.2018      5.4879      3.9716
O      9.8389      1.8087      2.6903
H      7.0580      2.7123      1.7560
H      7.2487      6.8401      2.1792
H      7.9092      3.7152      3.4755
H      8.1365      5.2097      1.2063
C      7.7870      4.7380      1.9587
C      9.2208      2.7639      2.1067
C      7.3913      5.7503      2.7641
C      7.9207      3.4423      2.3926
10

O      7.2160      5.4733      3.9856
O      9.8643      1.7954      2.6989
H      7.0652      2.8056      1.7636
H      7.2555      6.8523      2.2328
H      7.9292      3.6986      3.4661
H      8.2199      5.2894      1.1867
C      7.8042      4.7622      1.9528
C      9.2289      2.7550      2.1320
C      7.4021      5.7806      2.7608
C      7.9410      3.4018      2.3981
10

O      7.2299      5.4600      4.0000
O      9.8895      1.7836      2.7090
H      7.0810      2.9034      1.8078
H      7.2695      6.8354      2.2996
H      7.9411      3.6695      3.4614
H      8.3091      5.3646      1.1368
C      7.8224      4.7877      1.9468
C      9.2349      2.7438      2.1595
C      7.4126      5.8110      2.7583
C      7.9583      3.3597      2.4063
10

O      7.2434      5.4481      4.0143
O      9.9142      1.7734      2.7203
H      7.1004      2.9956      1.8812
H      7.2896      6.7996      2.3712
H      7.9431      3.6293      3.4634
H      8.3882      5.4199      1.0819
C      7.8424      4.8141      1.9399
C      9.2400      2.7299      2.1880
C      7.4231      5.8400      2.7576
C      7.9720      3.3190      2.4171
10

O      7.2567      5.4376      4.0280
O      9.9382      1.7651      2.7326
H      7.1092      3.0704      1.9693
H      7.3122      6.7689      2.4363
H      7.9350      3.5802      3.4731
H      8.4475      5.4488      1.0363
C      7.8648      4.8413      1.9318
C      9.2458      2.7133      2.2159
C      7.4338      5.8648      2.7595
C      7.9824      3.2818      2.4311
10

O      7.2697      5.4287      4.0409
O      9.9613      1.7586      2.7456
H      7.0881      3.1192      2.0567
H      7.3323      6.7764      2.4834
H      7.9183      3.5256      3.4909
H      8.4831      5.4507      1.0066
C      7.8893      4.8690      1.9229
C      9.2531      2.6940      2.2420
C      7.4453      5.8823      2.7651
C      7.9909      3.2496      2.4492
10

O      7.2826      5.4212      4.0526
O      9.9834      1.7540      2.7591
H      7.0292      3.1407      2.1363
H      7.3482      6.8350      2.5104
H      7.8958      3.4696      3.5169
H      8.4940      5.4282      0.9943
C      7.9155      4.8967      1.9139
C      9.2626      2.6725      2.2655
C      7.4578      5.8910      2.7743
C      7.9980      3.2231      2.4712
10

O      7.2952      5.4150      4.0631
O     10.0042      1.7510      2.7729
H      6.9462      3.1384      2.2107
H      7.3631      6.9204      2.5268
H      7.8714      3.4151      3.5513
H      8.4811      5.3852      0.9976
C      7.9426      4.9239      1.9053
C      9.2743      2.6491      2.2861
C      7.4712      5.8928      2.7864
C      8.0031      3.2021      2.4963
10

O      7.3074      5.4100      4.0721
O     10.0238      1.7496      2.7870
H      6.8602      3.1164      2.2842
H      7.3811      6.9985      2.5442
H      7.8483      3.3627      3.5945
H      8.4472      5.3268      1.0099
C      7.9696      4.9504      1.8977
C      9.2880      2.6245      2.3035
C      7.4852      5.8904      2.8005
C      8.0052      3.1861      2.5237
10

O      7.3192      5.4060      4.0796
O     10.0422      1.7496      2.8013
H      6.7866      3.0787      2.3576
H      7.4046      7.0486      2.5702
H      7.8296      3.3122      3.6448
H      8.3994      5.2605      1.0164
C      7.9953      4.9755      1.8927
C      9.3028      2.5993      2.3180
C      7.4996      5.8858      2.8159
C      8.0038      3.1744      2.5527
10

O      7.0481      5.6532      3.9758
O      9.5998      1.9946      2.7119
H      7.0606      2.6082      2.7566
H      7.2630      6.6785      2.1279
H      7.7569      3.4407      3.6439
H      7.8021      4.6090      0.8525
C      7.6514      4.6966      1.7988
C      9.0258      2.8100      2.0130
C      7.2646      5.5922      2.7357
C      7.7524      3.3364      2.5263
10

O      7.0621      5.6375      3.9640
O      9.6226      1.9734      2.7025
H      7.1136      2.5961      2.6636
H      7.2718      6.5943      2.1404
H      7.7300      3.4720      3.6043
H      7.8114      4.6575      0.7862
C      7.6573      4.7008      1.8312
C      9.0462      2.8026      2.0121
C      7.2787      5.5935      2.7421
C      7.7597      3.3754      2.5082
10

O      7.0771      5.6214      3.9528
O      9.6456      1.9522      2.6942
H      7.1363      2.5661      2.5541
H      7.2789      6.5076      2.1630
H      7.7199      3.5111      3.5701
H      7.8355      4.7133      0.7260
C      7.6646      4.7003      1.8667
C      9.0675      2.7964      2.0130
C      7.2926      5.5993      2.7476
C      7.7697      3.4160      2.4878
10

O      7.0928      5.6047      3.9433
O      9.6687      1.9314      2.6874
H      7.1370      2.5291      2.4309
H      7.2833      6.4411      2.1861
H      7.7241      3.5546      3.5443
H      7.8675      4.7764      0.6970
C      7.6740      4.6956      1.9009
C      9.0895      2.7914      2.0158
C      7.3061      5.6091      2.7525
C      7.7824      3.4549      2.4662
10

O      7.1087      5.5878      3.9367
O      9.6920      1.9111      2.6820
H      7.1260      2.4993      2.2998
H      7.2836      6.4197      2.1958
H      7.7394      3.5981      3.5274
H      7.9020      4.8444      0.7075
C      7.6856      4.6886      1.9306
C      9.1120      2.7875      2.0207
C      7.3193      5.6215      2.7574
C      7.7973      3.4882      2.4450
10

O      7.1248      5.5706      3.9338
O      9.7155      1.8916      2.6783
H      7.1105      2.4855      2.1687
H      7.2791      6.4550      2.1844
H      7.7626      3.6376      3.5179
H      7.9357      4.9135      0.7574
C      7.6994      4.6825      1.9533
C      9.1346      2.7844      2.0280
C      7.3322      5.6356      2.7624
C      7.8143      3.5120      2.4257
10

O      7.1408      5.5534      3.9349
O      9.7394      1.8730      2.6764
H      7.0940      2.4913      2.0451
H      7.2706      6.5345      2.1602
H      7.7908      3.6706      3.5122
H      7.9673      4.9792      0.8425
C      7.7152      4.6804      1.9676
C      9.1565      2.7818      2.0377
C      7.3448      5.6519      2.7665
C      7.8332      3.5234      2.4098
10

O      7.1566      5.5363      3.9399
O      9.7636      1.8553      2.6766
H      7.0787      2.5177      1.9358
H      7.2608      6.6320      2.1387
H      7.8217      3.6958      3.5065
H      7.9979      5.0378      0.9544
C      7.7325      4.6850      1.9732
C      9.1768      2.7791      2.0502
C      7.3570      5.6715      2.7687
C      7.8539      3.5209      2.3985
10

O      7.1720      5.5196      3.9481
O      9.7883      1.8387      2.6790
H      7.0664      2.5646      1.8472
H      7.2526      6.7242      2.1315
H      7.8533      3.7126      3.4982
H      8.0305      5.0895      1.0744
C      7.7508      4.6971      1.9713
C      9.1948      2.7755      2.0656
C      7.3688      5.6948      2.7688
C      7.8760      3.5051      2.3921
10

O      7.1871      5.5034      3.9589
O      9.8135      1.8231      2.6836
H      7.0590      2.6304      1.7853
H      7.2481      6.7963      2.1446
H      7.8832      3.7196      3.4872
H      8.0731      5.1427      1.1689
C      7.7692      4.7157      1.9653
C      9.2095      2.7706      2.0844
C      7.3803      5.7214      2.7670
C      7.8986      3.4778      2.3904
10

O      7.2018      5.4879      3.9716
O      9.8389      1.8087      2.6903
H      7.0580      2.7123      1.7560
H      7.2487      6.8401      2.1792
H      7.9092      3.7152      3.4755
H      8.1365      5.2097      1.2063
C      7.7870      4.7380      1.9587
C      9.2208      2.7639      2.1067
C      7.3913      5.7503      2.7641
C      7.9207      3.4423      2.3926
10

O      7.2160      5.4733      3.9856
O      9.8643      1.7954      2.6989
H      7.0652      2.8056      1.7636
H      7.2555      6.8523      2.2328
H      7.9292      3.6986      3.4661
H      8.2199      5.2894      1.1867
C      7.8042      4.7622      1.9528
C      9.2289      2.7550      2.1320
C      7.4021      5.7806      2.7608
C      7.9410      3.4018      2.3981
10

O      7.2299      5.4600      4.0000
O      9.8895      1.7836      2.7090
H      7.0810      2.9034      1.8078
H      7.2695      6.8354      2.2996
H      7.9411      3.6695      3.4614
H      8.3091      5.3646      1.1368
C      7.8224      4.7877      1.9468
C      9.2349      2.7438      2.1595
C      7.4126      5.8110      2.7583
C      7.9583      3.3597      2.4063
10

O      7.2434      5.4481      4.0143
O      9.9142      1.7734      2.7203
H      7.1004      2.9956      1.8812
H      7.2896      6.7996      2.3712
H      7.9431      3.6293      3.4634
H      8.3882      5.4199      1.0819
C      7.8424      4.8141      1.9399
C      9.2400      2.7299      2.1880
C      7.4231      5.8400      2.7576
C      7.9720      3.3190      2.4171
10

O      7.2567      5.4376      4.0280
O      9.9382      1.7651      2.7326
H      7.1092      3.0704      1.9693
H      7.3122      6.7689      2.4363
H      7.9350      3.5802      3.4731
H      8.4475      5.4488      1.0363
C      7.8648      4.8413      1.9318
C      9.2458      2.7133      2.2159
C      7.4338      5.8648      2.7595
C      7.9824      3.2818      2.4311
10

O      7.2697      5.4287      4.0409
O      9.9613      1.7586      2.7456
H      7.0881      3.1192      2.0567
H      7.3323      6.7764      2.4834
H      7.9183      3.5256      3.4909
H      8.4831      5.4507      1.0066
C      7.8893      4.8690      1.9229
C      9.2531      2.6940      2.2420
C      7.4453      5.8823      2.7651
C      7.9909      3.2496      2.4492
10

O      7.2826      5.4212      4.0526
O      9.9834      1.7540      2.7591
H      7.0292      3.1407      2.1363
H      7.3482      6.8350      2.5104
H      7.8958      3.4696      3.5169
H      8.4940      5.4282      0.9943
C      7.9155      4.8967      1.9139
C      9.2626      2.6725      2.2655
C      7.4578      5.8910      2.7743
C      7.9980      3.2231      2.4712
10

O      7.2952      5.4150      4.0631
O     10.0042      1.7510      2.7729
H      6.9462      3.1384      2.2107
H      7.3631      6.9204      2.5268
H      7.8714      3.4151      3.5513
H      8.4811      5.3852      0.9976
C      7.9426      4.9239      1.9053
C      9.2743      2.6491      2.2861
C      7.4712      5.8928      2.7864
C      8.0031      3.2021      2.4963
10

O      7.3074      5.4100      4.0721
O     10.0238      1.7496      2.7870
H      6.8602      3.1164      2.2842
H      7.3811      6.9985      2.5442
H      7.8483      3.3627      3.5945
H      8.4472      5.3268      1.0099
C      7.9696      4.9504      1.8977
C      9.2880      2.6245      2.3035
C      7.4852      5.8904      2.8005
C      8.0052      3.1861      2.5237
10

O      7.3192      5.4060      4.0796
O     10.0422      1.7496      2.8013
H      6.7866      3.0787      2.3576
H      7.4046      7.0486      2.5702
H      7.8296      3.3122      3.6448
H      8.3994      5.2605      1.0164
C      7.9953      4.9755      1.8927
C      9.3028      2.5993      2.3180
C      7.4996      5.8858      2.8159
C      8.0038      3.1744      2.5527
