19

O     10.2514     -1.0082      3.8286
O      7.4844      0.0572      7.0172
O      8.6979      0.5880      3.3091
H      9.4518     -0.7947      3.1823
H      8.3956      1.7432      7.7531
H      6.6311      0.3725      7.4784
H      9.9942      1.2798      5.5580
H      3.6081      4.5084      4.5024
N      4.0860      3.7787      4.8058
N      9.1234     -1.8996      5.4583
C      9.9053     -0.7638      5.2873
C      5.1960      3.1281      4.6822
C      8.2656      0.6597      4.5207
C      9.2500      0.6425      5.5864
C      6.0711      2.2628      4.1135
C      7.6773      2.1576      5.7859
C      8.2871      1.1332      6.6200
C      8.3402     -2.5585      4.7932
C      6.9982      1.4094      4.7692
19

O     10.2503     -1.0077      3.8207
O      7.4644      0.0624      7.0294
O      8.7088      0.5837      3.3196
H      9.4528     -0.6705      3.2275
H      8.3838      1.7161      7.7295
H      6.6036      0.3610      7.4913
H      9.9364      1.2356      5.5851
H      3.6792      4.5618      4.5287
N      4.0965      3.7704      4.7709
N      9.1252     -1.9039      5.4727
C      9.9271     -0.7877      5.3019
C      5.1947      3.1554      4.6581
C      8.2816      0.6614      4.5124
C      9.2329      0.6389      5.5986
C      6.0549      2.2629      4.1098
C      7.6620      2.1408      5.7738
C      8.3152      1.1143      6.6125
C      8.3302     -2.5633      4.7849
C      7.0204      1.4075      4.7548
19

O     10.2481     -1.0072      3.8140
O      7.4451      0.0678      7.0407
O      8.7188      0.5792      3.3326
H      9.4565     -0.5420      3.2768
H      8.3879      1.6861      7.6900
H      6.5734      0.3518      7.5081
H      9.9346      1.2280      5.5991
H      3.7319      4.6558      4.5389
N      4.1073      3.7583      4.7363
N      9.1249     -1.9090      5.4835
C      9.9477     -0.8101      5.3205
C      5.1942      3.1802      4.6304
C      8.2967      0.6631      4.4984
C      9.2120      0.6274      5.6087
C      6.0382      2.2623      4.1076
C      7.6429      2.1261      5.7646
C      8.3418      1.0969      6.6100
C      8.3240     -2.5682      4.7780
C      7.0424      1.4068      4.7409
19

O     10.2451     -1.0058      3.8093
O      7.4272      0.0732      7.0510
O      8.7283      0.5743      3.3468
H      9.4590     -0.4072      3.3265
H      8.4106      1.6542      7.6373
H      6.5405      0.3463      7.5284
H      9.9827      1.2498      5.6004
H      3.7814      4.7622      4.5443
N      4.1166      3.7449      4.7009
N      9.1222     -1.9151      5.4903
C      9.9662     -0.8303      5.3427
C      5.1954      3.2025      4.5999
C      8.3101      0.6649      4.4799
C      9.1893      0.6081      5.6157
C      6.0215      2.2606      4.1068
C      7.6211      2.1142      5.7587
C      8.3647      1.0816      6.6130
C      8.3220     -2.5727      4.7729
C      7.0633      1.4075      4.7271
19

O     10.2419     -1.0032      3.8070
O      7.4111      0.0780      7.0601
O      8.7378      0.5688      3.3606
H      9.4598     -0.2676      3.3738
H      8.4539      1.6226      7.5770
H      6.5063      0.3445      7.5518
H     10.0488      1.2718      5.5901
H      3.8377      4.8554      4.5501
N      4.1235      3.7327      4.6643
N      9.1173     -1.9224      5.4935
C      9.9819     -0.8479      5.3676
C      5.1985      3.2228      4.5676
C      8.3211      0.6667      4.4591
C      9.1689      0.5832      5.6184
C      6.0059      2.2569      4.1073
C      7.5978      2.1055      5.7569
C      8.3825      1.0689      6.6216
C      8.3242     -2.5769      4.7698
C      7.0823      1.4096      4.7128
19

O     10.2387     -0.9996      3.8074
O      7.3973      0.0822      7.0683
O      8.7476      0.5631      3.3723
H      9.4634     -0.1288      3.4167
H      8.5192      1.5958      7.5199
H      6.4725      0.3458      7.5779
H     10.1088      1.2725      5.5702
H      3.9031      4.9266      4.5555
N      4.1278      3.7230      4.6267
N      9.1102     -1.9310      5.4933
C      9.9936     -0.8629      5.3934
C      5.2038      3.2417      4.5346
C      8.3289      0.6685      4.4388
C      9.1535      0.5544      5.6163
C      5.9924      2.2507      4.1086
C      7.5740      2.1006      5.7594
C      8.3942      1.0584      6.6347
C      8.3304     -2.5807      4.7687
C      7.0988      1.4131      4.6976
19

O     10.2359     -0.9960      3.8109
O      7.3863      0.0857      7.0755
O      8.7574      0.5578      3.3796
H      9.4817     -0.0023      3.4566
H      8.6074      1.5817      7.4823
H      6.4408      0.3487      7.6063
H     10.1531      1.2441      5.5438
H      3.9747      4.9737      4.5577
N      4.1294      3.7164      4.5888
N      9.1011     -1.9406      5.4904
C      9.9996     -0.8756      5.4171
C      5.2112      3.2595      4.5015
C      8.3326      0.6702      4.4220
C      9.1440      0.5227      5.6095
C      5.9818      2.2416      4.1104
C      7.5506      2.0994      5.7665
C      8.3996      1.0494      6.6503
C      8.3406     -2.5845      4.7696
C      7.1124      1.4180      4.6816
19

O     10.4215     -1.0770      4.1452
O      7.7021     -0.0871      7.2816
O      8.8413      0.4867      3.1658
H     10.0026      0.0453      3.3268
H      9.8051     -1.4843      3.5083
H      8.2076      2.8588      6.0992
H      9.7350      1.1993      5.2818
H      4.0993      4.8078      3.9093
N      4.3693      3.7918      4.1955
N      9.1045     -2.2332      5.4499
C      9.7896     -1.0406      5.5198
C      5.3278      3.1608      4.0416
C      8.1619      0.5491      4.3735
C      9.0778      0.4179      5.5057
C      5.8902      1.9016      4.0063
C      7.3804      2.1366      6.1869
C      8.2523      1.0179      6.6435
C      8.7609     -3.0647      4.7810
C      7.2453      1.7003      4.8395
19

O     10.4491     -1.0785      4.1636
O      7.7252     -0.1149      7.2958
O      8.8255      0.4759      3.1635
H     10.0151      0.0206      3.3455
H      9.7082     -1.5025      3.5686
H      8.1969      2.8745      6.1107
H      9.6883      1.2378      5.3016
H      4.0604      4.7529      3.8964
N      4.3870      3.8013      4.1833
N      9.1094     -2.2625      5.4482
C      9.7803     -1.0331      5.5127
C      5.3284      3.1374      4.0275
C      8.1611      0.5471      4.3639
C      9.0630      0.4526      5.5035
C      5.8880      1.8798      3.9994
C      7.3852      2.1302      6.1969
C      8.2593      1.0198      6.6306
C      8.7827     -3.1060      4.7833
C      7.2551      1.7107      4.8627
19

O     10.4759     -1.0797      4.1810
O      7.7483     -0.1424      7.3081
O      8.8099      0.4635      3.1623
H      9.9972      0.0085      3.3705
H      9.6269     -1.5247      3.6390
H      8.1865      2.9003      6.1212
H      9.6719      1.2921      5.3144
H      4.0215      4.7101      3.8848
N      4.4021      3.8099      4.1716
N      9.1154     -2.2876      5.4473
C      9.7720     -1.0220      5.5080
C      5.3303      3.1157      4.0134
C      8.1598      0.5477      4.3551
C      9.0481      0.4845      5.5013
C      5.8891      1.8581      3.9948
C      7.3899      2.1225      6.2058
C      8.2696      1.0207      6.6228
C      8.8022     -3.1513      4.7840
C      7.2621      1.7196      4.8808
19

O     10.5006     -1.0809      4.1973
O      7.7716     -0.1692      7.3182
O      8.7947      0.4496      3.1621
H      9.9498      0.0091      3.3994
H      9.5750     -1.5451      3.7178
H      8.1749      2.9365      6.1337
H      9.6820      1.3564      5.3201
H      3.9806      4.6853      3.8724
N      4.4147      3.8165      4.1602
N      9.1222     -2.3087      5.4467
C      9.7645     -1.0079      5.5060
C      5.3332      3.0967      3.9990
C      8.1578      0.5514      4.3473
C      9.0341      0.5130      5.4987
C      5.8936      1.8371      3.9926
C      7.3942      2.1134      6.2142
C      8.2829      1.0206      6.6209
C      8.8196     -3.1999      4.7837
C      7.2659      1.7270      4.8929
19

O     10.5227     -1.0824      4.2124
O      7.7951     -0.1949      7.3259
O      8.7801      0.4343      3.1630
H      9.8746      0.0232      3.4278
H      9.5609     -1.5600      3.7964
H      8.1606      2.9816      6.1508
H      9.7083      1.4175      5.3201
H      3.9381      4.6782      3.8589
N      4.4248      3.8204      4.1490
N      9.1292     -2.3264      5.4458
C      9.7575     -0.9914      5.5067
C      5.3371      3.0811      3.9842
C      8.1548      0.5586      4.3406
C      9.0227      0.5381      5.4949
C      5.9014      1.8179      3.9931
C      7.3981      2.1033      6.2222
C      8.2984      1.0197      6.6252
C      8.8351     -3.2504      4.7835
C      7.2663      1.7329      4.8984
19

O     10.5419     -1.0841      4.2268
O      7.8188     -0.2196      7.3308
O      8.7665      0.4180      3.1649
H      9.7741      0.0514      3.4503
H      9.5877     -1.5672      3.8681
H      8.1427      3.0328      6.1747
H      9.7402      1.4619      5.3163
H      3.8976      4.6827      3.8459
N      4.4324      3.8215      4.1377
N      9.1356     -2.3418      5.4440
C      9.7508     -0.9733      5.5099
C      5.3418      3.0694      3.9687
C      8.1506      0.5695      4.3354
C      9.0155      0.5602      5.4895
C      5.9121      1.8013      3.9961
C      7.4015      2.0923      6.2299
C      8.3152      1.0180      6.6354
C      8.8489     -3.3008      4.7844
C      7.2630      1.7374      4.8975
19

O     10.5583     -1.0860      4.2408
O      7.8427     -0.2430      7.3328
O      8.7536      0.4011      3.1678
H      9.6563      0.0919      3.4631
H      9.6546     -1.5654      3.9287
H      8.1215      3.0863      6.2065
H      9.7699      1.4802      5.3098
H      3.8646      4.6911      3.8359
N      4.4373      3.8200      4.1259
N      9.1404     -2.3563      5.4405
C      9.7439     -0.9544      5.5145
C      5.3472      3.0621      3.9523
C      8.1448      0.5843      4.3322
C      9.0134      0.5793      5.4822
C      5.9253      1.7880      4.0017
C      7.4042      2.0808      6.2369
C      8.3316      1.0148      6.6496
C      8.8614     -3.3489      4.7870
C      7.2563      1.7407      4.8904
19

O     10.5723     -1.0878      4.2550
O      7.8669     -0.2652      7.3318
O      8.7405      0.3843      3.1712
H      9.5442      0.1364      3.4700
H      9.7536     -1.5565      3.9737
H      8.0982      3.1380      6.2463
H      9.7932      1.4677      5.3017
H      3.8438      4.6971      3.8306
N      4.4396      3.8161      4.1133
N      9.1428     -2.3710      5.4341
C      9.7365     -0.9352      5.5192
C      5.3529      3.0589      3.9348
C      8.1371      0.6028      4.3312
C      9.0168      0.5954      5.4729
C      5.9401      1.7786      4.0098
C      7.4055      2.0690      6.2430
C      8.3448      1.0083      6.6645
C      8.8727     -3.3930      4.7919
C      7.2466      1.7427      4.8781
19

O     10.5852     -1.0886      4.2702
O      7.8915     -0.2857      7.3277
O      8.7243      0.3687      3.1740
H      9.4837      0.1697      3.4889
H      9.8626     -1.5516      3.9951
H      8.0746      3.1837      6.2932
H      9.8099      1.4254      5.2925
H      3.8380      4.6970      3.8307
N      4.4394      3.8098      4.0996
N      9.1419     -2.3872      5.4241
C      9.7279     -0.9157      5.5218
C      5.3589      3.0596      3.9162
C      8.1276      0.6242      4.3325
C      9.0254      0.6082      5.4619
C      5.9557      1.7736      4.0202
C      7.4052      2.0573      6.2480
C      8.3539      0.9983      6.6784
C      8.8825     -3.4313      4.7993
C      7.2344      1.7434      4.8616
19

O     10.5992     -1.0870      4.2872
O      7.9162     -0.3044      7.3209
O      8.7031      0.3552      3.1754
H      9.5062      0.1839      3.5331
H      9.9462     -1.5730      3.9803
H      8.0532      3.2200      6.3453
H      9.8243      1.3602      5.2822
H      3.8473      4.6895      3.8357
N      4.4372      3.8014      4.0848
N      9.1373     -2.4053      5.4102
C      9.7183     -0.8958      5.5211
C      5.3649      3.0636      3.8963
C      8.1164      0.6478      4.3358
C      9.0383      0.6175      5.4496
C      5.9710      1.7732      4.0322
C      7.4029      2.0456      6.2513
C      8.3611      0.9866      6.6927
C      8.8906     -3.4628      4.8092
C      7.2205      1.7430      4.8422
19

O     10.6149     -1.0819      4.3067
O      7.9411     -0.3207      7.3115
O      8.6791      0.3432      3.1763
H      9.5777      0.1885      3.5879
H      9.9882     -1.6344      3.9230
H      8.0360      3.2432      6.4007
H      9.8450      1.2851      5.2695
H      3.8698      4.6762      3.8442
N      4.4333      3.7908      4.0688
N      9.1289     -2.4255      5.3923
C      9.7079     -0.8757      5.5178
C      5.3709      3.0701      3.8752
C      8.1038      0.6726      4.3412
C      9.0541      0.6229      5.4368
C      5.9849      1.7776      4.0452
C      7.3985      2.0342      6.2529
C      8.3690      0.9750      6.7084
C      8.8963     -3.4869      4.8213
C      7.2057      1.7414      4.8216
19

O     10.6308     -1.0741      4.3277
O      7.9659     -0.3344      7.2995
O      8.6556      0.3325      3.1780
H      9.6510      0.1930      3.6301
H     10.0123     -1.7183      3.8358
H      8.0254      3.2509      6.4570
H      9.8837      1.2153      5.2518
H      3.9017      4.6601      3.8541
N      4.4281      3.7782      4.0517
N      9.1171     -2.4476      5.3710
C      9.6974     -0.8558      5.5134
C      5.3773      3.0784      3.8530
C      8.0902      0.6977      4.3484
C      9.0711      0.6238      5.4244
C      5.9961      1.7869      4.0582
C      7.3921      2.0228      6.2526
C      8.3788      0.9643      6.7252
C      8.8991     -3.5036      4.8350
C      7.1911      1.7391      4.8015
19

O     10.2514     -1.0082      3.8286
O      7.4844      0.0572      7.0172
O      8.6979      0.5880      3.3091
H      9.4518     -0.7947      3.1823
H      8.3956      1.7432      7.7531
H      6.6311      0.3725      7.4784
H      9.9942      1.2798      5.5580
H      3.6081      4.5084      4.5024
N      4.0860      3.7787      4.8058
N      9.1234     -1.8996      5.4583
C      9.9053     -0.7638      5.2873
C      5.1960      3.1281      4.6822
C      8.2656      0.6597      4.5207
C      9.2500      0.6425      5.5864
C      6.0711      2.2628      4.1135
C      7.6773      2.1576      5.7859
C      8.2871      1.1332      6.6200
C      8.3402     -2.5585      4.7932
C      6.9982      1.4094      4.7692
19

O     10.2503     -1.0077      3.8207
O      7.4644      0.0624      7.0294
O      8.7088      0.5837      3.3196
H      9.4528     -0.6705      3.2275
H      8.3838      1.7161      7.7295
H      6.6036      0.3610      7.4913
H      9.9364      1.2356      5.5851
H      3.6792      4.5618      4.5287
N      4.0965      3.7704      4.7709
N      9.1252     -1.9039      5.4727
C      9.9271     -0.7877      5.3019
C      5.1947      3.1554      4.6581
C      8.2816      0.6614      4.5124
C      9.2329      0.6389      5.5986
C      6.0549      2.2629      4.1098
C      7.6620      2.1408      5.7738
C      8.3152      1.1143      6.6125
C      8.3302     -2.5633      4.7849
C      7.0204      1.4075      4.7548
19

O     10.2481     -1.0072      3.8140
O      7.4451      0.0678      7.0407
O      8.7188      0.5792      3.3326
H      9.4565     -0.5420      3.2768
H      8.3879      1.6861      7.6900
H      6.5734      0.3518      7.5081
H      9.9346      1.2280      5.5991
H      3.7319      4.6558      4.5389
N      4.1073      3.7583      4.7363
N      9.1249     -1.9090      5.4835
C      9.9477     -0.8101      5.3205
C      5.1942      3.1802      4.6304
C      8.2967      0.6631      4.4984
C      9.2120      0.6274      5.6087
C      6.0382      2.2623      4.1076
C      7.6429      2.1261      5.7646
C      8.3418      1.0969      6.6100
C      8.3240     -2.5682      4.7780
C      7.0424      1.4068      4.7409
19

O     10.2451     -1.0058      3.8093
O      7.4272      0.0732      7.0510
O      8.7283      0.5743      3.3468
H      9.4590     -0.4072      3.3265
H      8.4106      1.6542      7.6373
H      6.5405      0.3463      7.5284
H      9.9827      1.2498      5.6004
H      3.7814      4.7622      4.5443
N      4.1166      3.7449      4.7009
N      9.1222     -1.9151      5.4903
C      9.9662     -0.8303      5.3427
C      5.1954      3.2025      4.5999
C      8.3101      0.6649      4.4799
C      9.1893      0.6081      5.6157
C      6.0215      2.2606      4.1068
C      7.6211      2.1142      5.7587
C      8.3647      1.0816      6.6130
C      8.3220     -2.5727      4.7729
C      7.0633      1.4075      4.7271
19

O     10.2419     -1.0032      3.8070
O      7.4111      0.0780      7.0601
O      8.7378      0.5688      3.3606
H      9.4598     -0.2676      3.3738
H      8.4539      1.6226      7.5770
H      6.5063      0.3445      7.5518
H     10.0488      1.2718      5.5901
H      3.8377      4.8554      4.5501
N      4.1235      3.7327      4.6643
N      9.1173     -1.9224      5.4935
C      9.9819     -0.8479      5.3676
C      5.1985      3.2228      4.5676
C      8.3211      0.6667      4.4591
C      9.1689      0.5832      5.6184
C      6.0059      2.2569      4.1073
C      7.5978      2.1055      5.7569
C      8.3825      1.0689      6.6216
C      8.3242     -2.5769      4.7698
C      7.0823      1.4096      4.7128
19

O     10.2387     -0.9996      3.8074
O      7.3973      0.0822      7.0683
O      8.7476      0.5631      3.3723
H      9.4634     -0.1288      3.4167
H      8.5192      1.5958      7.5199
H      6.4725      0.3458      7.5779
H     10.1088      1.2725      5.5702
H      3.9031      4.9266      4.5555
N      4.1278      3.7230      4.6267
N      9.1102     -1.9310      5.4933
C      9.9936     -0.8629      5.3934
C      5.2038      3.2417      4.5346
C      8.3289      0.6685      4.4388
C      9.1535      0.5544      5.6163
C      5.9924      2.2507      4.1086
C      7.5740      2.1006      5.7594
C      8.3942      1.0584      6.6347
C      8.3304     -2.5807      4.7687
C      7.0988      1.4131      4.6976
19

O     10.2359     -0.9960      3.8109
O      7.3863      0.0857      7.0755
O      8.7574      0.5578      3.3796
H      9.4817     -0.0023      3.4566
H      8.6074      1.5817      7.4823
H      6.4408      0.3487      7.6063
H     10.1531      1.2441      5.5438
H      3.9747      4.9737      4.5577
N      4.1294      3.7164      4.5888
N      9.1011     -1.9406      5.4904
C      9.9996     -0.8756      5.4171
C      5.2112      3.2595      4.5015
C      8.3326      0.6702      4.4220
C      9.1440      0.5227      5.6095
C      5.9818      2.2416      4.1104
C      7.5506      2.0994      5.7665
C      8.3996      1.0494      6.6503
C      8.3406     -2.5845      4.7696
C      7.1124      1.4180      4.6816
19

O     10.4215     -1.0770      4.1452
O      7.7021     -0.0871      7.2816
O      8.8413      0.4867      3.1658
H     10.0026      0.0453      3.3268
H      9.8051     -1.4843      3.5083
H      8.2076      2.8588      6.0992
H      9.7350      1.1993      5.2818
H      4.0993      4.8078      3.9093
N      4.3693      3.7918      4.1955
N      9.1045     -2.2332      5.4499
C      9.7896     -1.0406      5.5198
C      5.3278      3.1608      4.0416
C      8.1619      0.5491      4.3735
C      9.0778      0.4179      5.5057
C      5.8902      1.9016      4.0063
C      7.3804      2.1366      6.1869
C      8.2523      1.0179      6.6435
C      8.7609     -3.0647      4.7810
C      7.2453      1.7003      4.8395
19

O     10.4491     -1.0785      4.1636
O      7.7252     -0.1149      7.2958
O      8.8255      0.4759      3.1635
H     10.0151      0.0206      3.3455
H      9.7082     -1.5025      3.5686
H      8.1969      2.8745      6.1107
H      9.6883      1.2378      5.3016
H      4.0604      4.7529      3.8964
N      4.3870      3.8013      4.1833
N      9.1094     -2.2625      5.4482
C      9.7803     -1.0331      5.5127
C      5.3284      3.1374      4.0275
C      8.1611      0.5471      4.3639
C      9.0630      0.4526      5.5035
C      5.8880      1.8798      3.9994
C      7.3852      2.1302      6.1969
C      8.2593      1.0198      6.6306
C      8.7827     -3.1060      4.7833
C      7.2551      1.7107      4.8627
19

O     10.4759     -1.0797      4.1810
O      7.7483     -0.1424      7.3081
O      8.8099      0.4635      3.1623
H      9.9972      0.0085      3.3705
H      9.6269     -1.5247      3.6390
H      8.1865      2.9003      6.1212
H      9.6719      1.2921      5.3144
H      4.0215      4.7101      3.8848
N      4.4021      3.8099      4.1716
N      9.1154     -2.2876      5.4473
C      9.7720     -1.0220      5.5080
C      5.3303      3.1157      4.0134
C      8.1598      0.5477      4.3551
C      9.0481      0.4845      5.5013
C      5.8891      1.8581      3.9948
C      7.3899      2.1225      6.2058
C      8.2696      1.0207      6.6228
C      8.8022     -3.1513      4.7840
C      7.2621      1.7196      4.8808
19

O     10.5006     -1.0809      4.1973
O      7.7716     -0.1692      7.3182
O      8.7947      0.4496      3.1621
H      9.9498      0.0091      3.3994
H      9.5750     -1.5451      3.7178
H      8.1749      2.9365      6.1337
H      9.6820      1.3564      5.3201
H      3.9806      4.6853      3.8724
N      4.4147      3.8165      4.1602
N      9.1222     -2.3087      5.4467
C      9.7645     -1.0079      5.5060
C      5.3332      3.0967      3.9990
C      8.1578      0.5514      4.3473
C      9.0341      0.5130      5.4987
C      5.8936      1.8371      3.9926
C      7.3942      2.1134      6.2142
C      8.2829      1.0206      6.6209
C      8.8196     -3.1999      4.7837
C      7.2659      1.7270      4.8929
19

O     10.5227     -1.0824      4.2124
O      7.7951     -0.1949      7.3259
O      8.7801      0.4343      3.1630
H      9.8746      0.0232      3.4278
H      9.5609     -1.5600      3.7964
H      8.1606      2.9816      6.1508
H      9.7083      1.4175      5.3201
H      3.9381      4.6782      3.8589
N      4.4248      3.8204      4.1490
N      9.1292     -2.3264      5.4458
C      9.7575     -0.9914      5.5067
C      5.3371      3.0811      3.9842
C      8.1548      0.5586      4.3406
C      9.0227      0.5381      5.4949
C      5.9014      1.8179      3.9931
C      7.3981      2.1033      6.2222
C      8.2984      1.0197      6.6252
C      8.8351     -3.2504      4.7835
C      7.2663      1.7329      4.8984
19

O     10.5419     -1.0841      4.2268
O      7.8188     -0.2196      7.3308
O      8.7665      0.4180      3.1649
H      9.7741      0.0514      3.4503
H      9.5877     -1.5672      3.8681
H      8.1427      3.0328      6.1747
H      9.7402      1.4619      5.3163
H      3.8976      4.6827      3.8459
N      4.4324      3.8215      4.1377
N      9.1356     -2.3418      5.4440
C      9.7508     -0.9733      5.5099
C      5.3418      3.0694      3.9687
C      8.1506      0.5695      4.3354
C      9.0155      0.5602      5.4895
C      5.9121      1.8013      3.9961
C      7.4015      2.0923      6.2299
C      8.3152      1.0180      6.6354
C      8.8489     -3.3008      4.7844
C      7.2630      1.7374      4.8975
19

O     10.5583     -1.0860      4.2408
O      7.8427     -0.2430      7.3328
O      8.7536      0.4011      3.1678
H      9.6563      0.0919      3.4631
H      9.6546     -1.5654      3.9287
H      8.1215      3.0863      6.2065
H      9.7699      1.4802      5.3098
H      3.8646      4.6911      3.8359
N      4.4373      3.8200      4.1259
N      9.1404     -2.3563      5.4405
C      9.7439     -0.9544      5.5145
C      5.3472      3.0621      3.9523
C      8.1448      0.5843      4.3322
C      9.0134      0.5793      5.4822
C      5.9253      1.7880      4.0017
C      7.4042      2.0808      6.2369
C      8.3316      1.0148      6.6496
C      8.8614     -3.3489      4.7870
C      7.2563      1.7407      4.8904
19

O     10.5723     -1.0878      4.2550
O      7.8669     -0.2652      7.3318
O      8.7405      0.3843      3.1712
H      9.5442      0.1364      3.4700
H      9.7536     -1.5565      3.9737
H      8.0982      3.1380      6.2463
H      9.7932      1.4677      5.3017
H      3.8438      4.6971      3.8306
N      4.4396      3.8161      4.1133
N      9.1428     -2.3710      5.4341
C      9.7365     -0.9352      5.5192
C      5.3529      3.0589      3.9348
C      8.1371      0.6028      4.3312
C      9.0168      0.5954      5.4729
C      5.9401      1.7786      4.0098
C      7.4055      2.0690      6.2430
C      8.3448      1.0083      6.6645
C      8.8727     -3.3930      4.7919
C      7.2466      1.7427      4.8781
19

O     10.5852     -1.0886      4.2702
O      7.8915     -0.2857      7.3277
O      8.7243      0.3687      3.1740
H      9.4837      0.1697      3.4889
H      9.8626     -1.5516      3.9951
H      8.0746      3.1837      6.2932
H      9.8099      1.4254      5.2925
H      3.8380      4.6970      3.8307
N      4.4394      3.8098      4.0996
N      9.1419     -2.3872      5.4241
C      9.7279     -0.9157      5.5218
C      5.3589      3.0596      3.9162
C      8.1276      0.6242      4.3325
C      9.0254      0.6082      5.4619
C      5.9557      1.7736      4.0202
C      7.4052      2.0573      6.2480
C      8.3539      0.9983      6.6784
C      8.8825     -3.4313      4.7993
C      7.2344      1.7434      4.8616
19

O     10.5992     -1.0870      4.2872
O      7.9162     -0.3044      7.3209
O      8.7031      0.3552      3.1754
H      9.5062      0.1839      3.5331
H      9.9462     -1.5730      3.9803
H      8.0532      3.2200      6.3453
H      9.8243      1.3602      5.2822
H      3.8473      4.6895      3.8357
N      4.4372      3.8014      4.0848
N      9.1373     -2.4053      5.4102
C      9.7183     -0.8958      5.5211
C      5.3649      3.0636      3.8963
C      8.1164      0.6478      4.3358
C      9.0383      0.6175      5.4496
C      5.9710      1.7732      4.0322
C      7.4029      2.0456      6.2513
C      8.3611      0.9866      6.6927
C      8.8906     -3.4628      4.8092
C      7.2205      1.7430      4.8422
19

O     10.6149     -1.0819      4.3067
O      7.9411     -0.3207      7.3115
O      8.6791      0.3432      3.1763
H      9.5777      0.1885      3.5879
H      9.9882     -1.6344      3.9230
H      8.0360      3.2432      6.4007
H      9.8450      1.2851      5.2695
H      3.8698      4.6762      3.8442
N      4.4333      3.7908      4.0688
N      9.1289     -2.4255      5.3923
C      9.7079     -0.8757      5.5178
C      5.3709      3.0701      3.8752
C      8.1038      0.6726      4.3412
C      9.0541      0.6229      5.4368
C      5.9849      1.7776      4.0452
C      7.3985      2.0342      6.2529
C      8.3690      0.9750      6.7084
C      8.8963     -3.4869      4.8213
C      7.2057      1.7414      4.8216
19

O     10.6308     -1.0741      4.3277
O      7.9659     -0.3344      7.2995
O      8.6556      0.3325      3.1780
H      9.6510      0.1930      3.6301
H     10.0123     -1.7183      3.8358
H      8.0254      3.2509      6.4570
H      9.8837      1.2153      5.2518
H      3.9017      4.6601      3.8541
N      4.4281      3.7782      4.0517
N      9.1171     -2.4476      5.3710
C      9.6974     -0.8558      5.5134
C      5.3773      3.0784      3.8530
C      8.0902      0.6977      4.3484
C      9.0711      0.6238      5.4244
C      5.9961      1.7869      4.0582
C      7.3921      2.0228      6.2526
C      8.3788      0.9643      6.7252
C      8.8991     -3.5036      4.8350
C      7.1911      1.7391      4.8015
