19

O      7.4388     -0.6989      4.6371
O     10.4770     -0.9838      4.0861
O      8.4094     -0.7599      7.2227
O      8.7559      0.3293      3.2089
H      8.0769     -0.9675      6.1621
H      8.0893      0.9707      2.7594
H     10.1802     -1.2649      6.2774
H      9.8880      1.4973      4.8828
H      4.6280      4.2491      3.1390
H      6.5376     -0.5028      5.1319
N      4.9950      3.4151      2.5981
C     10.0188     -0.6692      5.2478
C      5.4586      2.8550      3.5784
C      8.1382      0.3886      4.4297
C      9.3748      0.6047      5.4115
C      6.2445      2.0405      4.3142
C      7.4513      1.5292      6.3338
C      8.6833      0.6972      6.7439
C      7.4771      1.7771      4.8479
19

O      7.4623     -0.7067      4.6513
O     10.4778     -0.9924      4.0961
O      8.4116     -0.7755      7.2298
O      8.7383      0.3175      3.2007
H      8.1220     -0.9087      6.2358
H      8.0707      0.9601      2.7543
H     10.1492     -1.2650      6.2850
H      9.9653      1.4674      4.8033
H      4.6567      4.2792      3.0729
H      6.6044     -0.5366      5.1409
N      4.9982      3.4238      2.5786
C     10.0207     -0.7025      5.2455
C      5.4758      2.8438      3.5873
C      8.1547      0.3979      4.4456
C      9.3628      0.5799      5.4139
C      6.2443      2.0612      4.3105
C      7.4571      1.5169      6.3193
C      8.6905      0.6877      6.7677
C      7.4729      1.7780      4.8454
19

O      7.5295     -0.7344      4.7029
O     10.4655     -1.0132      4.1201
O      8.4211     -0.8043      7.2501
O      8.6830      0.2862      3.1693
H      8.1853     -0.8008      6.4177
H      8.1325      0.9392      2.7326
H      9.9432     -1.2986      6.1824
H     10.0977      1.2749      4.7054
H      4.6743      4.3379      2.8888
H      6.7550     -0.6388      5.1919
N      5.0049      3.4463      2.5347
C     10.0301     -0.7949      5.2487
C      5.5314      2.8106      3.6075
C      8.2156      0.4449      4.4981
C      9.3279      0.5050      5.4116
C      6.2335      2.1288      4.2959
C      7.4899      1.4717      6.2524
C      8.7112      0.6730      6.8346
C      7.4579      1.7604      4.8581
19

O      7.5535     -0.7447      4.7217
O     10.4572     -1.0193      4.1248
O      8.4272     -0.8073      7.2630
O      8.6657      0.2761      3.1585
H      8.1497     -0.7951      6.3575
H      8.1621      0.9448      2.7047
H      9.8527     -1.3423      6.1345
H     10.0988      1.1866      4.7241
H      4.6498      4.3465      2.8464
H      6.7465     -0.6658      5.2447
N      5.0079      3.4497      2.5269
C     10.0323     -0.8198      5.2527
C      5.5447      2.8059      3.6047
C      8.2362      0.4639      4.5132
C      9.3208      0.4805      5.4088
C      6.2321      2.1487      4.2946
C      7.5044      1.4553      6.2269
C      8.7188      0.6728      6.8539
C      7.4524      1.7472      4.8676
19

O      7.5772     -0.7551      4.7419
O     10.4472     -1.0254      4.1271
O      8.4339     -0.8071      7.2762
O      8.6498      0.2657      3.1486
H      8.0979     -0.8028      6.2835
H      8.1846      0.9589      2.6611
H      9.7614     -1.4068      6.0960
H     10.0806      1.0956      4.7666
H      4.6101      4.3458      2.8161
H      6.7265     -0.6906      5.3039
N      5.0115      3.4506      2.5227
C     10.0333     -0.8404      5.2573
C      5.5528      2.8069      3.5946
C      8.2553      0.4831      4.5243
C      9.3183      0.4567      5.4062
C      6.2344      2.1652      4.2975
C      7.5188      1.4409      6.2049
C      8.7272      0.6742      6.8709
C      7.4465      1.7307      4.8781
19

O      7.5995     -0.7656      4.7639
O     10.4360     -1.0318      4.1268
O      8.4405     -0.8040      7.2873
O      8.6351      0.2553      3.1396
H      8.0427     -0.8228      6.2348
H      8.2018      0.9745      2.6062
H      9.6757     -1.4854      6.0662
H     10.0502      1.0107      4.8284
H      4.5568      4.3330      2.7963
H      6.7134     -0.7142      5.3561
N      5.0159      3.4488      2.5220
C     10.0329     -0.8567      5.2631
C      5.5556      2.8136      3.5772
C      8.2719      0.5018      4.5297
C      9.3214      0.4334      5.4047
C      6.2410      2.1782      4.3048
C      7.5320      1.4296      6.1890
C      8.7362      0.6766      6.8850
C      7.4400      1.7111      4.8885
19

O      7.6195     -0.7760      4.7882
O     10.4237     -1.0385      4.1236
O      8.4464     -0.7982      7.2956
O      8.6212      0.2454      3.1314
H      7.9906     -0.8549      6.2249
H      8.2179      0.9817      2.5479
H      9.6029     -1.5664      6.0389
H     10.0218      0.9455      4.9001
H      4.4926      4.3056      2.7848
H      6.7154     -0.7361      5.3943
N      5.0206      3.4446      2.5244
C     10.0306     -0.8693      5.2707
C      5.5540      2.8250      3.5538
C      8.2853      0.5192      4.5284
C      9.3296      0.4106      5.4058
C      6.2510      2.1884      4.3157
C      7.5437      1.4217      6.1814
C      8.7459      0.6791      6.8958
C      7.4328      1.6889      4.8975
19

O      7.6370     -0.7866      4.8147
O     10.4107     -1.0457      4.1175
O      8.4515     -0.7898      7.3009
O      8.6081      0.2364      3.1238
H      7.9459     -0.8968      6.2568
H      8.2365      0.9726      2.4933
H      9.5495     -1.6390      6.0090
H     10.0168      0.9177      4.9676
H      4.4211      4.2618      2.7797
H      6.7350     -0.7554      5.4153
N      5.0255      3.4386      2.5293
C     10.0264     -0.8794      5.2804
C      5.5498      2.8392      3.5267
C      8.2956      0.5349      4.5199
C      9.3412      0.3876      5.4107
C      6.2631      2.1970      4.3289
C      7.5538      1.4174      6.1831
C      8.7553      0.6807      6.9024
C      7.4251      1.6648      4.9046
19

O      7.6519     -0.7974      4.8430
O     10.3971     -1.0535      4.1085
O      8.4556     -0.7791      7.3034
O      8.5957      0.2284      3.1167
H      7.9125     -0.9439      6.3305
H      8.2594      0.9441      2.4472
H      9.5195     -1.6957      5.9750
H     10.0503      0.9392      5.0217
H      4.3465      4.2025      2.7784
H      6.7712     -0.7711      5.4188
N      5.0298      3.4315      2.5356
C     10.0204     -0.8878      5.2923
C      5.5453      2.8539      3.4990
C      8.3031      0.5480      4.5044
C      9.3538      0.3645      5.4199
C      6.2753      2.2054      4.3426
C      7.5626      1.4164      6.1943
C      8.7629      0.6797      6.9034
C      7.4169      1.6390      4.9096
19

O      7.6646     -0.8087      4.8725
O     10.3832     -1.0621      4.0972
O      8.4586     -0.7665      7.3033
O      8.5838      0.2215      3.1101
H      7.8917     -0.9920      6.4427
H      8.2870      0.8982      2.4111
H      9.5151     -1.7319      5.9378
H     10.1132      1.0029      5.0675
H      4.2743      4.1313      2.7768
H      6.8190     -0.7819      5.4088
N      5.0328      3.4243      2.5420
C     10.0130     -0.8953      5.3059
C      5.5427      2.8669      3.4737
C      8.3087      0.5580      4.4829
C      9.3668      0.3431      5.4323
C      6.2861      2.2147      4.3555
C      7.5707      1.4178      6.2137
C      8.7666      0.6746      6.8975
C      7.4089      1.6121      4.9127
19

O      7.6757     -0.8206      4.9023
O     10.3691     -1.0720      4.0842
O      8.4606     -0.7523      7.3017
O      8.5727      0.2152      3.1041
H      7.8787     -1.0391      6.5819
H      8.3175      0.8412      2.3824
H      9.5357     -1.7459      5.8993
H     10.1806      1.0875      5.1149
H      4.2085      4.0523      2.7712
H      6.8671     -0.7872      5.3937
N      5.0332      3.4179      2.5472
C     10.0053     -0.9025      5.3203
C      5.5436      2.8763      3.4533
C      8.3133      0.5642      4.4564
C      9.3801      0.3264      5.4463
C      6.2939      2.2250      4.3668
C      7.5790      1.4204      6.2391
C      8.7664      0.6657      6.8847
C      7.4013      1.5845      4.9147
19

O      7.6867     -0.8334      4.9314
O     10.3554     -1.0839      4.0711
O      8.4627     -0.7364      7.3001
O      8.5626      0.2091      3.0991
H      7.8577     -1.0889      6.7232
H      8.3482      0.7822      2.3550
H      9.5773     -1.7409      5.8629
H     10.2313      1.1740      5.1689
H      4.1470      3.9675      2.7596
H      6.8958     -0.7857      5.3873
N      5.0300      3.4127      2.5502
C      9.9982     -0.9095      5.3342
C      5.5492      2.8811      3.4392
C      8.3177      0.5665      4.4266
C      9.3934      0.3169      5.4603
C      6.2981      2.2360      4.3764
C      7.5884      1.4231      6.2676
C      8.7644      0.6541      6.8665
C      7.3946      1.5566      4.9163
19

O      7.4388     -0.6989      4.6371
O     10.4770     -0.9838      4.0861
O      8.4094     -0.7599      7.2227
O      8.7559      0.3293      3.2089
H      8.0769     -0.9675      6.1621
H      8.0893      0.9707      2.7594
H     10.1802     -1.2649      6.2774
H      9.8880      1.4973      4.8828
H      4.6280      4.2491      3.1390
H      6.5376     -0.5028      5.1319
N      4.9950      3.4151      2.5981
C     10.0188     -0.6692      5.2478
C      5.4586      2.8550      3.5784
C      8.1382      0.3886      4.4297
C      9.3748      0.6047      5.4115
C      6.2445      2.0405      4.3142
C      7.4513      1.5292      6.3338
C      8.6833      0.6972      6.7439
C      7.4771      1.7771      4.8479
19

O      7.4623     -0.7067      4.6513
O     10.4778     -0.9924      4.0961
O      8.4116     -0.7755      7.2298
O      8.7383      0.3175      3.2007
H      8.1220     -0.9087      6.2358
H      8.0707      0.9601      2.7543
H     10.1492     -1.2650      6.2850
H      9.9653      1.4674      4.8033
H      4.6567      4.2792      3.0729
H      6.6044     -0.5366      5.1409
N      4.9982      3.4238      2.5786
C     10.0207     -0.7025      5.2455
C      5.4758      2.8438      3.5873
C      8.1547      0.3979      4.4456
C      9.3628      0.5799      5.4139
C      6.2443      2.0612      4.3105
C      7.4571      1.5169      6.3193
C      8.6905      0.6877      6.7677
C      7.4729      1.7780      4.8454
19

O      7.5295     -0.7344      4.7029
O     10.4655     -1.0132      4.1201
O      8.4211     -0.8043      7.2501
O      8.6830      0.2862      3.1693
H      8.1853     -0.8008      6.4177
H      8.1325      0.9392      2.7326
H      9.9432     -1.2986      6.1824
H     10.0977      1.2749      4.7054
H      4.6743      4.3379      2.8888
H      6.7550     -0.6388      5.1919
N      5.0049      3.4463      2.5347
C     10.0301     -0.7949      5.2487
C      5.5314      2.8106      3.6075
C      8.2156      0.4449      4.4981
C      9.3279      0.5050      5.4116
C      6.2335      2.1288      4.2959
C      7.4899      1.4717      6.2524
C      8.7112      0.6730      6.8346
C      7.4579      1.7604      4.8581
19

O      7.5535     -0.7447      4.7217
O     10.4572     -1.0193      4.1248
O      8.4272     -0.8073      7.2630
O      8.6657      0.2761      3.1585
H      8.1497     -0.7951      6.3575
H      8.1621      0.9448      2.7047
H      9.8527     -1.3423      6.1345
H     10.0988      1.1866      4.7241
H      4.6498      4.3465      2.8464
H      6.7465     -0.6658      5.2447
N      5.0079      3.4497      2.5269
C     10.0323     -0.8198      5.2527
C      5.5447      2.8059      3.6047
C      8.2362      0.4639      4.5132
C      9.3208      0.4805      5.4088
C      6.2321      2.1487      4.2946
C      7.5044      1.4553      6.2269
C      8.7188      0.6728      6.8539
C      7.4524      1.7472      4.8676
19

O      7.5772     -0.7551      4.7419
O     10.4472     -1.0254      4.1271
O      8.4339     -0.8071      7.2762
O      8.6498      0.2657      3.1486
H      8.0979     -0.8028      6.2835
H      8.1846      0.9589      2.6611
H      9.7614     -1.4068      6.0960
H     10.0806      1.0956      4.7666
H      4.6101      4.3458      2.8161
H      6.7265     -0.6906      5.3039
N      5.0115      3.4506      2.5227
C     10.0333     -0.8404      5.2573
C      5.5528      2.8069      3.5946
C      8.2553      0.4831      4.5243
C      9.3183      0.4567      5.4062
C      6.2344      2.1652      4.2975
C      7.5188      1.4409      6.2049
C      8.7272      0.6742      6.8709
C      7.4465      1.7307      4.8781
19

O      7.5995     -0.7656      4.7639
O     10.4360     -1.0318      4.1268
O      8.4405     -0.8040      7.2873
O      8.6351      0.2553      3.1396
H      8.0427     -0.8228      6.2348
H      8.2018      0.9745      2.6062
H      9.6757     -1.4854      6.0662
H     10.0502      1.0107      4.8284
H      4.5568      4.3330      2.7963
H      6.7134     -0.7142      5.3561
N      5.0159      3.4488      2.5220
C     10.0329     -0.8567      5.2631
C      5.5556      2.8136      3.5772
C      8.2719      0.5018      4.5297
C      9.3214      0.4334      5.4047
C      6.2410      2.1782      4.3048
C      7.5320      1.4296      6.1890
C      8.7362      0.6766      6.8850
C      7.4400      1.7111      4.8885
19

O      7.6195     -0.7760      4.7882
O     10.4237     -1.0385      4.1236
O      8.4464     -0.7982      7.2956
O      8.6212      0.2454      3.1314
H      7.9906     -0.8549      6.2249
H      8.2179      0.9817      2.5479
H      9.6029     -1.5664      6.0389
H     10.0218      0.9455      4.9001
H      4.4926      4.3056      2.7848
H      6.7154     -0.7361      5.3943
N      5.0206      3.4446      2.5244
C     10.0306     -0.8693      5.2707
C      5.5540      2.8250      3.5538
C      8.2853      0.5192      4.5284
C      9.3296      0.4106      5.4058
C      6.2510      2.1884      4.3157
C      7.5437      1.4217      6.1814
C      8.7459      0.6791      6.8958
C      7.4328      1.6889      4.8975
19

O      7.6370     -0.7866      4.8147
O     10.4107     -1.0457      4.1175
O      8.4515     -0.7898      7.3009
O      8.6081      0.2364      3.1238
H      7.9459     -0.8968      6.2568
H      8.2365      0.9726      2.4933
H      9.5495     -1.6390      6.0090
H     10.0168      0.9177      4.9676
H      4.4211      4.2618      2.7797
H      6.7350     -0.7554      5.4153
N      5.0255      3.4386      2.5293
C     10.0264     -0.8794      5.2804
C      5.5498      2.8392      3.5267
C      8.2956      0.5349      4.5199
C      9.3412      0.3876      5.4107
C      6.2631      2.1970      4.3289
C      7.5538      1.4174      6.1831
C      8.7553      0.6807      6.9024
C      7.4251      1.6648      4.9046
19

O      7.6519     -0.7974      4.8430
O     10.3971     -1.0535      4.1085
O      8.4556     -0.7791      7.3034
O      8.5957      0.2284      3.1167
H      7.9125     -0.9439      6.3305
H      8.2594      0.9441      2.4472
H      9.5195     -1.6957      5.9750
H     10.0503      0.9392      5.0217
H      4.3465      4.2025      2.7784
H      6.7712     -0.7711      5.4188
N      5.0298      3.4315      2.5356
C     10.0204     -0.8878      5.2923
C      5.5453      2.8539      3.4990
C      8.3031      0.5480      4.5044
C      9.3538      0.3645      5.4199
C      6.2753      2.2054      4.3426
C      7.5626      1.4164      6.1943
C      8.7629      0.6797      6.9034
C      7.4169      1.6390      4.9096
19

O      7.6646     -0.8087      4.8725
O     10.3832     -1.0621      4.0972
O      8.4586     -0.7665      7.3033
O      8.5838      0.2215      3.1101
H      7.8917     -0.9920      6.4427
H      8.2870      0.8982      2.4111
H      9.5151     -1.7319      5.9378
H     10.1132      1.0029      5.0675
H      4.2743      4.1313      2.7768
H      6.8190     -0.7819      5.4088
N      5.0328      3.4243      2.5420
C     10.0130     -0.8953      5.3059
C      5.5427      2.8669      3.4737
C      8.3087      0.5580      4.4829
C      9.3668      0.3431      5.4323
C      6.2861      2.2147      4.3555
C      7.5707      1.4178      6.2137
C      8.7666      0.6746      6.8975
C      7.4089      1.6121      4.9127
19

O      7.6757     -0.8206      4.9023
O     10.3691     -1.0720      4.0842
O      8.4606     -0.7523      7.3017
O      8.5727      0.2152      3.1041
H      7.8787     -1.0391      6.5819
H      8.3175      0.8412      2.3824
H      9.5357     -1.7459      5.8993
H     10.1806      1.0875      5.1149
H      4.2085      4.0523      2.7712
H      6.8671     -0.7872      5.3937
N      5.0332      3.4179      2.5472
C     10.0053     -0.9025      5.3203
C      5.5436      2.8763      3.4533
C      8.3133      0.5642      4.4564
C      9.3801      0.3264      5.4463
C      6.2939      2.2250      4.3668
C      7.5790      1.4204      6.2391
C      8.7664      0.6657      6.8847
C      7.4013      1.5845      4.9147
19

O      7.6867     -0.8334      4.9314
O     10.3554     -1.0839      4.0711
O      8.4627     -0.7364      7.3001
O      8.5626      0.2091      3.0991
H      7.8577     -1.0889      6.7232
H      8.3482      0.7822      2.3550
H      9.5773     -1.7409      5.8629
H     10.2313      1.1740      5.1689
H      4.1470      3.9675      2.7596
H      6.8958     -0.7857      5.3873
N      5.0300      3.4127      2.5502
C      9.9982     -0.9095      5.3342
C      5.5492      2.8811      3.4392
C      8.3177      0.5665      4.4266
C      9.3934      0.3169      5.4603
C      6.2981      2.2360      4.3764
C      7.5884      1.4231      6.2676
C      8.7644      0.6541      6.8665
C      7.3946      1.5566      4.9163
