   96
 8.60913090000000e+00  8.60913090000000e+00  8.60913090000000e+00
 O  2.41064823786028e+00  8.23214147423554e+00  7.08948147135284e+00     1.56345945671381e-01  1.52574320774320e-01 -4.43889267736894e-01 
 H  5.64053775347469e-02  6.90519839575002e+00 -6.33547748052844e-01     6.09432182739951e-01 -2.38524302065147e+00 -1.77677618412471e+00 
 H  1.26562847760097e+00  5.23112062117893e+00  6.51515825130727e+00    -1.73254684515141e+00 -3.18352906493497e+00 -2.71742730478204e+00 
 O  9.52774675090500e+00  8.61447132483962e+00  4.93514199245390e+00    -1.15761464029060e-01 -3.99210043813577e-01 -6.15960517653805e-01 
 H  2.77601797744085e+00  4.93748679323791e+00  7.52813946768025e+00     3.44932997479019e-01 -9.58175841425563e-01  1.27516295689765e+00 
 H  7.66711168056606e+00  3.16477015053059e+00  4.58527872707952e+00    -2.40598612102833e+00  7.53234565603249e-01  2.14463644774957e+00 
 O  1.84864821405079e+00  7.75412905892933e+00  3.04986431884991e+00     7.98858153259935e-01 -7.47876438568758e-01  1.92248319833931e-02 
 H  3.05518406103718e+00  5.44151115336605e-01  6.78129189406895e+00     4.10267050363590e-01 -2.61609157923963e+00  3.66453448054721e+00 
 H  5.16247951998438e+00  7.28912241488228e+00  6.83630316272051e+00     3.68335553291004e+00 -4.19791875137799e-01 -1.37477350269926e+00 
 O  2.57404526344035e-01  2.46647266491334e+00  3.07526717228928e+00    -4.12237108015855e-01  1.49343862416508e-01  1.82306364636808e-01 
 H  4.86305894073715e+00  4.34527843913974e+00  8.47833967046746e+00    -6.79601001107543e-01 -6.94008548364925e-01 -2.51521690534887e+00 
 H  4.09631850147790e+00  1.10493215045340e+01  6.85012320732380e+00    -1.33695039657424e+00  1.59306590024814e+00 -1.24911530334213e-01 
 O  2.07274249840239e+00  5.52336577340780e+00  7.08897369299954e+00    -1.17553289202373e+00  5.11849158076971e-01 -4.21585783324558e-01 
 H  5.28580751105256e+00  4.45524461846955e+00  3.42373888630320e+00     1.17462467911795e+00  9.10898573621773e-01  1.03298417158051e+00 
 H  4.92283543880233e-01  5.42190856637957e+00  6.53905649504963e-01     4.41884682358549e+00 -8.89815785034778e-01  3.17886753055372e+00 
 O  7.69873700349089e+00  2.34582149895851e+00  7.51734235103751e+00    -1.68913053806881e-01 -1.29075397917549e-01 -5.25627698024220e-01 
 H  1.87479102171120e+00  4.81182461002266e+00  2.26623810007939e+00     1.12485165641997e+00 -2.91830398708271e+00 -2.47603446959322e+00 
 H  3.79545250336489e+00  3.10816481611443e+00  5.02836325038190e+00    -2.07016637663627e+00  8.80277541878216e-01 -1.78904725304514e+00 
 O  8.80919050050575e-02  5.26192558822344e+00  3.43479536749184e+00     4.89998685118817e-01  1.02453535303887e-01 -3.56255580840880e-01 
 H  6.41860080472155e+00  3.79465623508205e-01  4.65119955937361e+00    -3.16122848219498e-01 -1.53659794607795e-01  9.01648726341134e-01 
 H  2.61521310439180e+00  5.51901242594728e+00  7.90002346770263e-01     5.98690529108231e-01  1.18339540287666e+00  6.86717247099261e-01 
 O  3.67673494063518e+00  5.64727063929762e+00  6.09976872881726e-01     6.12923879431848e-01  2.59036147271955e-01 -5.84798096949913e-02 
 H -8.33474043017809e-01  3.33868782004438e+00  6.93792733295677e+00    -1.18645617985928e+00  2.47193647318679e+00  1.20410600811861e+00 
 H  6.86876565912793e+00  6.12177010110359e+00  5.12356834499843e+00     1.55570610085481e+00  9.88439021640574e-01  3.96740224131881e+00 
 O  5.62417581640708e+00  1.10844231131447e+00  7.62618493796387e-01    -8.17519178642398e-01  7.26308975331422e-02  4.85106591386612e-01 
 H  4.88071190604268e+00  5.06348956569375e+00  2.17068714609415e+00    -1.31155441896526e+00 -3.59703076842417e-01  1.09813286673718e+00 
 H  2.57134038205134e+00  7.90333100606044e+00  3.88789313822274e+00     2.39115572999485e+00  1.41160385691844e+00 -1.13899121806483e+00 
 O  2.62251163255798e+00  2.13956575522775e+00  4.56013356096065e+00    -2.41824220712453e-01  2.49511702816997e-01  1.12233521040149e-01 
 H  7.57970935376064e+00  7.24339507708621e+00  9.03886805937187e+00     1.77597652703285e+00 -1.89135606642281e+00  3.44395702701981e-01 
 H  7.27492461150285e+00  6.17376937969821e+00  7.16944079635130e+00     3.13833309170789e+00 -1.04492923805859e+00  5.63419989213128e-01 
 O  3.39871818263860e+00  2.72016481054771e+00  1.30776088848608e+00    -1.21502105337619e-01  9.95175029863699e-02 -3.88366636637042e-01 
 H  7.49635010418769e+00  4.66763168028575e+00  5.71884290694781e+00     1.85841926377344e+00 -4.36849957939021e-01 -2.15691112294923e-01 
 H  7.57423042950914e+00  4.48147860440417e+00  2.01464208460490e+00    -1.01245435448659e+00 -1.04446844387677e+00 -1.53535534155346e+00 
 O  8.81914187169250e+00  7.98212005506507e-01  8.25805351868030e-01    -1.76614555788568e-01 -2.45596680088434e-01 -3.67462367466418e-01 
 H  8.81593992387050e+00  9.04492518568204e+00  5.52691879773798e+00     1.49999166173793e+00 -1.84846500894582e+00  3.68936250505381e+00 
 H  5.72633005969748e+00  7.13709066104582e+00  8.31591195755931e+00     2.46319228191030e-01 -3.04426719453647e+00 -1.68145977716176e-01 
 O  8.03955910626698e+00  7.35232982158292e+00  3.00820875118442e+00    -1.52260414410648e-02 -2.72226257199274e-01  3.13555801121451e-01 
 H  2.56128384659456e+00  3.39131105530763e+00  1.24792943855713e+00     1.05706982395034e-01  1.17911065519574e+00  9.32596274540880e-01 
 H  9.98887806975394e+00 -3.52676605138538e-01  4.17764858745793e+00     4.48105205596251e-01  3.31469448213514e+00 -1.70866348829019e+00 
 O  4.10178448605675e+00  3.29852446565698e+00  6.28132654314815e+00    -8.46060961549633e-02  1.65284410868869e-01  1.07356007345108e-01 
 H  5.01663751375102e+00  4.03446609403384e+00  6.66440257744025e+00     1.09682928710117e+00  4.54983951167887e-01 -3.22518380803165e+00 
 H  6.87095373449857e+00  1.62892690113007e+00  7.53196837032175e+00    -2.34566608930590e+00 -7.60821491458072e-01 -1.97539625652404e+00 
 O  1.84118411105236e+00  2.21147624313870e+00  7.24726487985727e+00     2.58948549661468e-01  6.61043688673272e-01  7.88343715215461e-01 
 H  1.66720404600237e+00  2.63096977234425e+00  6.32838549849175e+00    -9.58348363564532e-01  2.57842672510201e+00  5.12811936266248e-01 
 H  5.71237689110271e+00  1.43776224594823e+00  3.16245321174489e+00     2.08998592102566e-01  1.03819342105454e+00 -1.49319584991632e+00 
 O  6.69874086080175e+00  7.70900719727790e+00  8.99697596479307e+00     3.25329742587288e-01 -9.69664691912851e-01  9.42801418854527e-02 
 H  4.32316053310386e+00  5.91964705950938e+00 -2.25571256739034e-01    -2.59324413946133e+00  7.47464182061347e-01 -1.24792087614404e+00 
 H  8.61153180068450e+00  1.64045602529923e+00  2.18958226619344e-01    -2.61605325008992e+00 -4.49948537376388e-01  2.44290844019860e+00 
 O  3.51537888508816e-01  6.42055061917695e+00  1.68246943303648e-01    -8.70971749929327e-01  6.00179934452717e-02 -4.24332155082275e-01 
 H  1.72120651782507e+00  2.55304788283286e+00  4.49692401099929e+00     2.10862064232443e-01 -3.21916779406931e+00 -1.56445237123633e+00 
 H  4.73404326282583e+00  5.86240079654019e-01  9.06769216705764e-01    -7.73695420007691e-02  5.85559661711048e-01  4.25153511337959e+00 
 O  6.87532741905579e+00  1.08153532093606e-01  5.38578455644616e+00     3.58208059316990e-01 -3.90835640198127e-01 -1.14151780046640e-01 
 H  4.71823552318720e+00 -1.91265318459009e-01  3.04553401919698e+00     6.57789828048605e-02  1.88595679530532e+00 -1.15809026191646e+00 
 H  3.32411190828862e+00  1.48236650912150e+00  1.13271377578697e+00    -5.25715264453334e-01  1.70619014695727e+00  2.54133200029117e+00 
 O  3.18817903688677e+00  5.45417678812648e+00  5.06125300678438e+00     2.09228619262408e-01  3.38083197123575e-02 -7.32824486113947e-01 
 H -9.85112579961877e-02  3.32073148300043e+00  3.32926843178338e+00    -2.39209494890254e+00 -2.86517024006940e+00 -2.80506053254274e+00 
 H  2.77536985751658e+00  1.12999490443437e+00  4.65121414070210e+00     1.76253921596032e+00  1.27570450865952e+00 -1.72421460594491e-01 
 O  4.47956139160367e+00  4.41643508901326e+00  2.84161179709907e+00     4.04915781518302e-01  6.85281671843324e-02 -5.42658185107447e-01 
 H  5.94528444255035e+00  3.99996987370867e+00  9.47853815595162e+00     1.38578828689593e+00  2.15205476700832e+00 -2.13835262103321e+00 
 H  7.33863382419611e+00  2.08997005184847e+00  2.71713413930560e+00    -6.09179425132752e-01  3.44724764948484e-01  7.11212283507944e-01 
 O  4.42672188445296e+00  7.51019035937541e+00  2.83792626573902e+00     4.90094097480946e-01 -7.05876962833680e-01  5.36125012256190e-01 
 H  2.59215735672855e+00  8.67342657252956e+00  1.01637489538620e+01     2.34828566403198e+00  1.53244125334990e+00  1.63395913876812e+00 
 H  3.54531916834827e+00  4.46735688095660e+00  4.83241085007644e+00     1.03093450116376e+00  2.32675113389866e+00  1.58587202099744e-01 
 O  4.98894955090788e+00  6.94622899296808e+00  7.69545774255479e+00     3.46053104601679e-01  5.69008909891745e-02 -2.07981338408125e-01 
 H  1.86339755656588e+00 -1.87068701901675e+00  2.44567043145050e+00    -2.60502702658862e+00 -1.89066067680549e+00  1.97770809730695e+00 
 H  4.98893522133454e+00  6.79371492085141e+00  2.19786540873137e+00     3.04917443011058e+00 -1.34645328518262e-01  2.24784019084318e+00 
 O  4.62515010980834e+00  9.93949519507421e+00  6.86601143960763e+00     6.27902991229829e-01 -3.30305006177708e-01 -6.10814057182980e-01 
 H  5.34673538960362e-01  7.34105494298907e-01  1.91979846712259e+00    -2.58448737707310e-01  4.59805239391830e+00 -1.99489972893867e+00 
 H  8.75737754289167e+00  3.75030090878972e+00  1.28127268057708e+00     5.80913245830413e-02  9.30614427156303e-02 -1.35507846033067e+00 
 O  7.99247243562990e+00  4.19032128353018e+00  1.03789274299268e+00     4.70563820891317e-01 -7.91252397043337e-02  7.58421229782062e-01 
 H  1.07869070992784e+00  7.41591607808811e-01  2.76790970581412e-01     1.32980256308343e+00  5.71375043536756e-01  5.94007533543205e-01 
 H  7.68855118910381e+00  8.10856059380823e+00  2.59110872085740e+00     8.56542917405111e-01  9.07779078963357e-01 -2.21009714857397e+00 
 O  7.75180894383578e+00  6.09882980006107e+00  6.38353552257769e+00    -2.89928328683185e-01 -1.61396731405301e-01  3.81286932268850e-01 
 H  5.24198049636539e+00  9.95472977568024e+00  6.21940473707988e+00    -7.59398923836274e-01  8.54144669666776e-01 -2.82190703892488e+00 
 H  6.08982441316646e-01  5.09875185512581e+00  4.28398158870374e+00    -1.12512645678757e-01  1.83895698575169e+00 -1.00398155490357e-01 
 O  5.73661859144907e+00  3.91458727728700e+00  8.58806728440389e+00     1.35690907768550e-01  4.77265443982786e-01  3.85737406242764e-01 
 H  6.53408783903248e+00 -5.70356024238418e-01  5.92691450064479e+00    -2.09643455090516e+00  1.74030499779125e+00  8.22909615694196e-01 
 H  6.44438797497948e+00  2.72666724563863e+00  1.36725251909191e+00    -2.67121973633918e+00 -4.93233702945351e-01 -2.70001372123116e-01 
 O  5.17116878299509e+00  1.29910482885658e+00  4.03008788395638e+00     8.02450061179989e-02 -1.01081011412659e-01  1.94406115458855e-01 
 H -8.52843818439247e-02  6.50471754136367e+00  3.29417922848335e+00     9.03018033365050e-02  1.72844223165611e+00  1.68833044198388e+00 
 H  6.40970569083790e-01  1.92427386822441e+00  3.80968180172008e+00    -3.43672986556775e+00  8.03307945373527e-01  6.20835657046191e-01 
 O  3.11272052297666e+00  5.28050723258469e-01  9.59762645994369e-01     7.33252670778133e-01 -2.61694711132654e-01  8.43608908526367e-01 
 H  4.32036433962424e+00  2.51402485984813e+00  9.03508352915608e-01     2.49893239700035e+00  1.68568523267908e+00  1.18199736252369e+00 
 H  6.34665233652456e+00  2.95825349021714e-01  8.06924443698516e-01     1.27718164338645e+00 -3.24274522824780e+00  1.69630109451514e+00 
 O  5.81194677497882e+00  6.10377421874337e+00  4.74640204797364e+00    -3.17177671694432e-01 -8.03455986194242e-01  1.26154841466035e+00 
 H  9.62389623240239e+00 -3.35235638188923e-01  2.76089370478118e+00    -3.01266842358259e+00  3.12729668149076e-01  1.25670031621517e+00 
 H  2.15779384523316e+00  7.45820332809040e+00  6.69801641538763e+00     5.10331494422408e-01  5.92807264881407e-01 -2.45756519469621e+00 
 O  1.69754274882156e+00  4.23795906564082e+00  1.42819573026491e+00    -3.55208777830009e-01  3.10040072953758e-01  4.67986332421714e-01 
 H  1.24106129892148e+00  2.85082300833344e+00  7.68939744520061e+00    -5.56338658597392e-01  2.38005670503983e+00 -9.20057101672514e-01 
 H  4.71678408397655e+00  2.15228785756771e+00  3.86358136548598e+00    -2.07319990565500e+00  1.25387619271010e+00  3.18569358586980e-01 
 O  7.48661635660886e+00  3.81604513138686e+00  5.23927996599505e+00    -6.47232880249037e-01  9.35401677618662e-01 -7.25997245847627e-01 
 H  2.49285631339194e+00 -1.93412425083350e-01 -4.23996458211615e-01    -5.77210486935335e-01 -1.83570434877602e+00 -3.28891289259956e+00 
 H  2.53489533188557e+00  5.47497263047785e+00  6.07536314426636e+00    -1.79382857609395e+00 -7.84542615479181e-01 -7.54397805865657e-02 
 O  6.52863647566658e+00  2.55664816415450e+00  2.34781784125434e+00    -3.52076122636739e-01  1.05776857944092e-01 -3.55805786976705e-01 
 H  6.07512472624931e+00  6.40599866030449e+00  3.88765712699132e+00    -7.57614202150020e-01  4.58605799026072e+00 -1.63603036182352e+00 
 H  5.27699013446097e+00  6.82545064559223e+00  5.29786831005976e+00    -3.62156424075209e+00  2.18237418029048e+00  4.85662445042869e-01 
