   96
 8.60913090000000e+00  8.60913090000000e+00  8.60913090000000e+00
 O  2.41064816643841e+00  8.23214129498499e+00  7.08948166776352e+00     1.56344598798289e-01  1.52573747616846e-01 -4.43888711136212e-01 
 H  5.64043653157467e-02  6.90519950646761e+00 -6.33546751958014e-01     6.09425933003706e-01 -2.38523686098399e+00 -1.77678353236733e+00 
 H  1.26562751955700e+00  5.23112148951650e+00  6.51515858787827e+00    -1.73254572336306e+00 -3.18352036231591e+00 -2.71743195795525e+00 
 O  9.52774663704145e+00  8.61447128537964e+00  4.93514194827167e+00    -1.15761491500998e-01 -3.99210662834068e-01 -6.15961101238096e-01 
 H  2.77601773125279e+00  4.93748538631935e+00  7.52813867476178e+00     3.44926028786549e-01 -9.58162611775448e-01  1.27514615610103e+00 
 H  7.66711177899769e+00  3.16477019080277e+00  4.58527841773102e+00    -2.40597913644830e+00  7.53236174946008e-01  2.14463678224725e+00 
 O  1.84864799007172e+00  7.75412913931016e+00  3.04986424561512e+00     7.98858986202760e-01 -7.47876240681744e-01  1.92255249541765e-02 
 H  3.05518349939619e+00  5.44152230858264e-01  6.78129093475821e+00     4.10288113216165e-01 -2.61607452735343e+00  3.66453651650145e+00 
 H  5.16248110521983e+00  7.28912254667804e+00  6.83630362352572e+00     3.68334988872810e+00 -4.19796424019881e-01 -1.37476836850609e+00 
 O  2.57404453627913e-01  2.46647271793063e+00  3.07526718281087e+00    -4.12237521796667e-01  1.49344466049777e-01  1.82305968907565e-01 
 H  4.86305193268843e+00  4.34526953767477e+00  8.47834700712074e+00    -6.79597664533994e-01 -6.94048252353365e-01 -2.51516262437576e+00 
 H  4.09631467419111e+00  1.10493286115545e+01  6.85010931965176e+00    -1.33696819544980e+00  1.59295405740060e+00 -1.24856313844158e-01 
 O  2.07274240480140e+00  5.52336597462148e+00  7.08897360960795e+00    -1.17553111638949e+00  5.11848450319323e-01 -4.21584681029205e-01 
 H  5.28580966752197e+00  4.45524160491614e+00  3.42373729321878e+00     1.17463920188772e+00  9.10884312608526e-01  1.03296571355754e+00 
 H  4.92283049599611e-01  5.42190725509422e+00  6.53904964689287e-01     4.41884540273085e+00 -8.89824885384873e-01  3.17885664887085e+00 
 O  7.69873691645661e+00  2.34582126370606e+00  7.51734269779716e+00    -1.68913862601038e-01 -1.29075603670580e-01 -5.25627439288068e-01 
 H  1.87479141061174e+00  4.81182489844445e+00  2.26623802586904e+00     1.12484963551987e+00 -2.91830107994623e+00 -2.47603675853026e+00 
 H  3.79547099287011e+00  3.10817690608857e+00  5.02835419863199e+00    -2.06999381565719e+00  8.80298924827866e-01 -1.78873880356941e+00 
 O  8.80919838885485e-02  5.26192551078223e+00  3.43479530882507e+00     4.89997900526323e-01  1.02453185655958e-01 -3.56255174564085e-01 
 H  6.41860006071044e+00  3.79464758628263e-01  4.65119976019371e+00    -3.16118827149815e-01 -1.53669804377885e-01  9.01653939214473e-01 
 H  2.61521296119577e+00  5.51901090004649e+00  7.90005716683594e-01     5.98683108870678e-01  1.18338458636252e+00  6.86720871477455e-01 
 O  3.67673454379911e+00  5.64727002044672e+00  6.09976978678143e-01     6.12923992193772e-01  2.59034600749040e-01 -5.84785016713070e-02 
 H -8.33473279460042e-01  3.33868741811114e+00  6.93792755671318e+00    -1.18645247310766e+00  2.47193594288451e+00  1.20410643592210e+00 
 H  6.86876572764784e+00  6.12177123366255e+00  5.12356347083970e+00     1.55578319570210e+00  9.88451000563578e-01  3.96737908928323e+00 
 O  5.62417540081709e+00  1.10844278121516e+00  7.62619430423915e-01    -8.17520874161424e-01  7.26324284069898e-02  4.85108297821293e-01 
 H  4.88071234980806e+00  5.06348801002344e+00  2.17068558973584e+00    -1.31155227834505e+00 -3.59701648908718e-01  1.09813465623900e+00 
 H  2.57134056207475e+00  7.90333125247896e+00  3.88789266241980e+00     2.39115369075305e+00  1.41160464063488e+00 -1.13899426606288e+00 
 O  2.62251070841576e+00  2.13956549623568e+00  4.56013289489933e+00    -2.41828063614894e-01  2.49509273637309e-01  1.12228993387594e-01 
 H  7.57970981944791e+00  7.24339606889815e+00  9.03886840938157e+00     1.77598130391768e+00 -1.89134830951987e+00  3.44395970268540e-01 
 H  7.27492558534775e+00  6.17376967548651e+00  7.16944123024578e+00     3.13833141398153e+00 -1.04493291976031e+00  5.63421238533805e-01 
 O  3.39871827139338e+00  2.72016490113395e+00  1.30776079093076e+00    -1.21500627602845e-01  9.95171231159444e-02 -3.88365617297696e-01 
 H  7.49635026615694e+00  4.66763214989985e+00  5.71884310199492e+00     1.85842078371258e+00 -4.36847136551269e-01 -2.15686058043682e-01 
 H  7.57423050032999e+00  4.48147859478806e+00  2.01464204393906e+00    -1.01244610783549e+00 -1.04447291858558e+00 -1.53534593581856e+00 
 O  8.81914186426921e+00  7.98212351884369e-01  8.25805247013313e-01    -1.76616275702623e-01 -2.45596911560605e-01 -3.67462482317329e-01 
 H  8.81594010028620e+00  9.04492503318495e+00  5.52691902132738e+00     1.49999228418289e+00 -1.84846558197802e+00  3.68935970634012e+00 
 H  5.72633258037096e+00  7.13708928656584e+00  8.31591240597783e+00     2.46295717102615e-01 -3.04419132538713e+00 -1.68134890873501e-01 
 O  8.03955926567312e+00  7.35232981668838e+00  3.00820857374766e+00    -1.52268215460800e-02 -2.72226507277500e-01  3.13555071854275e-01 
 H  2.56128418686787e+00  3.39131093854944e+00  1.24792885807583e+00     1.05711408003696e-01  1.17910936531034e+00  9.32585566236176e-01 
 H  9.98887830576634e+00 -3.52675890305273e-01  4.17764821477994e+00     4.48099275555084e-01  3.31470143420537e+00 -1.70865313123507e+00 
 O  4.10178363839801e+00  3.29852447130119e+00  6.28132566439400e+00    -8.46180936954686e-02  1.65287431377769e-01  1.07322310294191e-01 
 H  5.01665415275944e+00  4.03446076450716e+00  6.66439987759663e+00     1.09697855295895e+00  4.55117294211237e-01 -3.22507495879041e+00 
 H  6.87095553100794e+00  1.62892443997857e+00  7.53196522529770e+00    -2.34565230483510e+00 -7.60824291111291e-01 -1.97540411148097e+00 
 O  1.84118412359021e+00  2.21147628916916e+00  7.24726482100067e+00     2.58948601155046e-01  6.61042983127507e-01  7.88343044360411e-01 
 H  1.66720587869356e+00  2.63097057999981e+00  6.32838564015219e+00    -9.58336209523590e-01  2.57843566982557e+00  5.12809677304014e-01 
 H  5.71237113161384e+00  1.43776853200546e+00  3.16245065385056e+00     2.08930189089821e-01  1.03826883748529e+00 -1.49320792349148e+00 
 O  6.69873932963616e+00  7.70900558732430e+00  8.99697424807221e+00     3.25330763615019e-01 -9.69671602542977e-01  9.42777994942740e-02 
 H  4.32316451009299e+00  5.91964493047360e+00 -2.25566767546006e-01    -2.59325812722610e+00  7.47418569126351e-01 -1.24793008105191e+00 
 H  8.61153251040088e+00  1.64045781127694e+00  2.18959011737035e-01    -2.61603332864381e+00 -4.49929678324422e-01  2.44292108553808e+00 
 O  3.51538003421046e-01  6.42055072326429e+00  1.68246855953689e-01    -8.70971155592349e-01  6.00186367498349e-02 -4.24331133091614e-01 
 H  1.72120573469525e+00  2.55304768231872e+00  4.49692237483395e+00     2.10873694544823e-01 -3.21916096416042e+00 -1.56443816517966e+00 
 H  4.73404354519365e+00  5.86239352388415e-01  9.06765276187327e-01    -7.73725091680526e-02  5.85552746743617e-01  4.25154034135306e+00 
 O  6.87532748234228e+00  1.08153663100739e-01  5.38578456899352e+00     3.58207617341817e-01 -3.90834937811088e-01 -1.14152296923299e-01 
 H  4.71823518692161e+00 -1.91264591297501e-01  3.04553112459533e+00     6.57936334880687e-02  1.88594602885665e+00 -1.15810468035075e+00 
 H  3.32411034375995e+00  1.48236736394763e+00  1.13271401371133e+00    -5.25723650502363e-01  1.70620572004940e+00  2.54132353338165e+00 
 O  3.18817898402036e+00  5.45417709632882e+00  5.06125305543250e+00     2.09227885824706e-01  3.38094761573167e-02 -7.32824166501880e-01 
 H -9.85109899112253e-02  3.32073173057308e+00  3.32926827095747e+00    -2.39209512840231e+00 -2.86517157812948e+00 -2.80505547316132e+00 
 H  2.77537126064138e+00  1.12999493122984e+00  4.65121481337945e+00     1.76254425707215e+00  1.27571476726947e+00 -1.72417555466291e-01 
 O  4.47956233069912e+00  4.41643576603667e+00  2.84161193496636e+00     4.04916253562235e-01  6.85296707998507e-02 -5.42658458639285e-01 
 H  5.94529756894130e+00  3.99998284272793e+00  9.47853511595355e+00     1.38584687872666e+00  2.15200790497560e+00 -2.13841350695642e+00 
 H  7.33863271698146e+00  2.08997027708313e+00  2.71713759448755e+00    -6.09182424999749e-01  3.44720485451397e-01  7.11225718180513e-01 
 O  4.42672171701371e+00  7.51019068798801e+00  2.83792681590949e+00     4.90093241795397e-01 -7.05875089353038e-01  5.36126594898984e-01 
 H  2.59215687359919e+00  8.67342749335066e+00  1.01637488224681e+01     2.34827833037171e+00  1.53243452172092e+00  1.63396839702419e+00 
 H  3.54531546128842e+00  4.46735850708190e+00  4.83240963855295e+00     1.03090068483738e+00  2.32680671959082e+00  1.58581352092513e-01 
 O  4.98895131957019e+00  6.94623019060491e+00  7.69545868260830e+00     3.46055845654470e-01  5.69009484860479e-02 -2.07981423738425e-01 
 H  1.86339766169380e+00 -1.87068682539675e+00  2.44567017011690e+00    -2.60502737001834e+00 -1.89065606118420e+00  1.97770642512481e+00 
 H  4.98893524450739e+00  6.79371617129108e+00  2.19786534761562e+00     3.04917144575394e+00 -1.34638243289090e-01  2.24784259053682e+00 
 O  4.62515007982550e+00  9.93949577316530e+00  6.86601237323326e+00     6.27905200888158e-01 -3.30309494307171e-01 -6.10808622753081e-01 
 H  5.34676102213899e-01  7.34106651946508e-01  1.91979763026178e+00    -2.58438318959232e-01  4.59805472060371e+00 -1.99489671509202e+00 
 H  8.75737746993921e+00  3.75030051404665e+00  1.28127267836085e+00     5.80898216763438e-02  9.30560199598667e-02 -1.35508384553483e+00 
 O  7.99247228027950e+00  4.19032104926588e+00  1.03789272540830e+00     4.70563616224863e-01 -7.91251340049959e-02  7.58421055976796e-01 
 H  1.07868929260790e+00  7.41588038684445e-01  2.76789457964408e-01     1.32980836647152e+00  5.71362131893995e-01  5.93994641583707e-01 
 H  7.68855155782006e+00  8.10856070992071e+00  2.59110926252651e+00     8.56541015990877e-01  9.07779875046916e-01 -2.21008434066725e+00 
 O  7.75180891362786e+00  6.09882967842848e+00  6.38353565313696e+00    -2.89928410259462e-01 -1.61397717353249e-01  3.81286340894575e-01 
 H  5.24197890429370e+00  9.95472938348642e+00  6.21940495642519e+00    -7.59431045199579e-01  8.54135315518835e-01 -2.82190001595865e+00 
 H  6.08982095957009e-01  5.09875223788741e+00  4.28398191121456e+00    -1.12510946425509e-01  1.83895847791035e+00 -1.00399615148591e-01 
 O  5.73661807075915e+00  3.91458715044554e+00  8.58806806629059e+00     1.35688369785290e-01  4.77268544329380e-01  3.85736820528133e-01 
 H  6.53408733546629e+00 -5.70356517108540e-01  5.92691384677223e+00    -2.09643629766739e+00  1.74030086235745e+00  8.22901013264977e-01 
 H  6.44438181815273e+00  2.72666292374275e+00  1.36725048082475e+00    -2.67132606943333e+00 -4.93177057755260e-01 -2.69987513980537e-01 
 O  5.17116889482379e+00  1.29910370354387e+00  4.03008796233199e+00     8.02469705457388e-02 -1.01089168624840e-01  1.94407917276305e-01 
 H -8.52846536484565e-02  6.50471713835145e+00  3.29417888126064e+00     9.03125880142247e-02  1.72844465492336e+00  1.68832862398890e+00 
 H  6.40970728552286e-01  1.92427397677767e+00  3.80968148712225e+00    -3.43673601978133e+00  8.03297413987863e-01  6.20832521157129e-01 
 O  3.11272048980048e+00  5.28050623288584e-01  9.59762540959700e-01     7.33252352779662e-01 -2.61695016475900e-01  8.43607765907994e-01 
 H  4.32036652209650e+00  2.51402363257127e+00  9.03513198019748e-01     2.49893353270886e+00  1.68569911179378e+00  1.18203371740268e+00 
 H  6.34665537016691e+00  2.95822848878484e-01  8.06920557791181e-01     1.27720275306513e+00 -3.24273911388131e+00  1.69627659718234e+00 
 O  5.81194614052581e+00  6.10377403268600e+00  4.74640140054680e+00    -3.17183914422030e-01 -8.03455700330801e-01  1.26154457598271e+00 
 H  9.62389556999924e+00 -3.35237512962741e-01  2.76089369330784e+00    -3.01269121137740e+00  3.12723890316638e-01  1.25669282303515e+00 
 H  2.15779452608577e+00  7.45820271332229e+00  6.69801684173946e+00     5.10338413694438e-01  5.92802897555219e-01 -2.45756110249424e+00 
 O  1.69754282123033e+00  4.23795932636008e+00  1.42819575951977e+00    -3.55208988287152e-01  3.10041157279065e-01  4.67986550846057e-01 
 H  1.24106131376167e+00  2.85082245549209e+00  7.68939798128002e+00    -5.56333180361903e-01  2.38005785303409e+00 -9.20055391102991e-01 
 H  4.71678310193595e+00  2.15228933147422e+00  3.86359736262360e+00    -2.07318117314191e+00  1.25389497652226e+00  3.18600313918594e-01 
 O  7.48661640800598e+00  3.81604498535607e+00  5.23928004749097e+00    -6.47232680423557e-01  9.35401580594464e-01 -7.25997202777840e-01 
 H  2.49285687075126e+00 -1.93412867526187e-01 -4.23996412487262e-01    -5.77206253435304e-01 -1.83570363520077e+00 -3.28891198718160e+00 
 H  2.53489619126363e+00  5.47497322674960e+00  6.07536412223135e+00    -1.79383595473918e+00 -7.84545053519460e-01 -7.54301725742761e-02 
 O  6.52863677084742e+00  2.55664834281200e+00  2.34781807634747e+00    -3.52074481678231e-01  1.05777576294935e-01 -3.55807713034611e-01 
 H  6.07512309633749e+00  6.40598814874663e+00  3.88766196393739e+00    -7.57613750386809e-01  4.58602034304592e+00 -1.63596606536403e+00 
 H  5.27699491352245e+00  6.82545117739632e+00  5.29787007762234e+00    -3.62154353420156e+00  2.18237958496040e+00  4.85668133648007e-01 
