239

C     19.5880      9.1774      0.8439
C     17.0268      1.8959      6.9030
C     15.7891      3.1845      1.3276
C      6.9574      5.2368     15.5210
H     10.0684      3.2750      2.7445
C      7.7209      3.7116     15.6455
C     16.1535      4.1050      5.4698
C     16.0967      7.2295      6.6436
C      6.0229      2.0386     17.3068
C     14.0177      8.5494      0.8259
N     12.7328      3.2427      6.2202
C     13.4744      6.0911     13.4558
C     16.1592      4.0897      7.0085
H     13.4305      6.3370     12.3671
C     15.7037      6.2348      4.2813
C     17.0925     10.5046      3.3605
H      1.3668      0.1913     22.1366
H     10.5229      2.0472      5.7021
H      6.2299      5.4189     16.2983
C     16.7277      9.0972      3.3271
H      8.5725      3.8320     16.7420
H     12.0316      7.3702     10.2105
C     15.8305      2.6486      7.5756
H      9.3505      9.7552     13.4473
H      6.8575      2.0920     17.6603
O     14.7771     10.9685      1.8311
C      8.3783      0.5947     21.1643
H     15.3463      4.6989     12.2371
C      6.8701      6.3393      9.8249
H     14.0728      6.1064      9.6569
C      6.3717      2.6772     15.7913
H      6.2746      5.4997     20.4116
H      4.6364     -2.5203     21.1640
C     17.4486     10.8457      4.7768
C     10.1113      8.0989     18.0550
O     14.8030      8.3703      4.8572
C     11.4785      7.4471      7.1620
C      8.6100      8.2709     12.2495
C     20.2577      8.1277      0.0205
C      6.3198      7.2498     12.3345
H      5.0639      4.1793     14.7031
H     17.1252      9.6907      1.4329
H     14.1149     -0.4155      3.3726
H      8.6994      5.7640      8.5585
C      7.1022      6.7342     11.1468
C      7.9848      6.2094     16.4345
H     21.1946     10.5009      1.2135
C     11.7468      6.2576      5.2602
H     15.2491      8.7313      8.1718
H     17.5786      1.1474      2.9430
H      5.1349      6.5625     14.3449
C      9.8342     -1.3996     20.4369
C      5.5984      5.8333     22.4347
C     15.8413      7.4948      5.0834
C      4.5966      5.8580     13.2922
C     17.5660      8.9593      2.2197
H      9.9318      6.7422     18.1196
H      8.4441      8.5687     15.6063
H      3.3359      1.3014     23.1462
H      7.1117      0.5406     22.7951
H     17.9280     12.3378      4.0527
C     12.6754      2.8229      8.6598
C     13.3904      8.5267     12.3868
C     14.4572      2.1634      7.0745
C     12.3516      6.3999     14.2993
H      5.1881      7.5341     12.3164
H      9.4888      2.5940      4.5440
H      6.5348      4.4928     18.9373
C     10.0242      7.6632     13.0316
O     15.0494     10.3112     -0.2480
C     15.9988      8.5865      7.2510
C      3.2786      1.0837     22.0902
C     16.0843      1.7571      4.5615
H      9.9599     10.3616     15.0912
H     18.7115     12.3593      5.9162
C      4.0788      3.6689     16.2373
C     10.7545      8.4653     14.0295
C     10.9941      6.9423     11.9308
C      5.5646      3.0830     18.0344
H     16.9250     12.6894      5.1657
H      8.2225      3.2973     14.7851
H      8.3318      1.6297     20.7248
C      2.5906     -0.6372     20.6789
C      5.1049     -1.3335     20.8230
C     10.6474      4.8125      3.5375
C     16.0146      9.8127      6.3964
C     15.8059      3.9875      2.4898
H      1.6124     -1.3901     20.3007
H     15.7650      8.6232      0.7244
H      9.7414      4.9930      1.6960
H     12.9100      9.6598     11.9791
H     14.2377      3.3395     12.6704
O      5.6061      6.8804     19.6288
C     13.7005      7.7178      4.4825
H     16.1861     10.2556      7.4700
C     10.4117      8.5283     16.6966
C     10.9165      7.5861     15.8333
C     10.2997      7.5316      7.8677
H     14.1669      2.5170      4.7048
H     13.9375      7.8232     10.5357
H      6.4207      2.0371     15.0127
H     12.3570      1.7200      8.7189
C     16.5088      1.8937      1.0144
C     13.2249      8.4522      2.0240
C     12.7048      4.0404      3.9281
C      7.3885     -1.1908     19.9738
H     15.8230     -0.9291      3.7722
H      9.4308      7.4956      7.1219
H     15.1913     10.0932      5.8705
O     12.9983      9.3430     19.3400
C      6.5563     -0.7288     21.0515
C     13.7346      6.8023      6.6982
C     15.0793      7.6203      1.0133
H     15.5826      8.8137      2.9095
C     13.6522      7.4099      3.0683
H      9.0062      0.4363     22.2705
C     15.6401      1.2322      3.3255
C     13.2011      2.8383      7.2832
C     10.6266      2.5969      4.7343
C     17.9073     12.1795      5.0059
C      3.1033      3.4590     22.7726
C     11.8566      7.8796     14.7155
C      4.0825     -0.5340     20.7850
N     15.0597     -0.1672      3.7512
H     16.7819      1.1341     -1.0703
C     16.1046      1.0060     -0.1639
O     17.4075      6.2498      2.8319
C      9.4088      6.6040     13.9127
H     18.2816      9.6935      6.0623
H     13.8139      1.1494      7.5149
C     10.3271      4.2473      2.4543
C     10.4598      7.6490      9.2679
H     14.3197      1.8730      5.9187
H      7.9770      5.1050     13.7003
C     10.1345      9.5306     14.2759
H     15.9526      6.5234      9.3702
H      9.9229      4.6902      5.6367
H     12.0500      9.2106     17.4170
H     14.3299      9.4824     10.7414
H     15.1100      0.7348      0.3751
H     12.1229      3.8765      8.6193
C     15.0534      7.1304      2.3048
H      4.8785      6.0692     22.9953
C     14.4915      8.4205     11.1402
H      2.9439      3.4950     23.9045
H     16.8242     11.4373      2.9493
C      4.2377      8.4230     17.5691
C      7.8735      7.7422     15.9255
C     20.2714     10.5073      0.7841
C     18.7966      8.5831      2.0142
C      4.2771      6.2378     19.4946
C     14.6517      4.7721      2.3796
C      5.9917      6.2881     13.4289
C      5.5740      7.7103     17.3270
C      7.9375      6.8564     14.0805
C      4.2554      5.1084     20.5577
C     14.4481      5.0707     13.9315
H      8.6548      5.9043     18.3257
C      6.3104      7.3116     18.5481
H      9.5635      5.6568     13.3512
C      7.1427      5.5976     14.1346
H     12.8171      3.2149      2.9680
O      7.5195      6.8845     18.5175
H      8.7103      9.2128     11.7680
H     14.4725      1.7516      2.9754
H     12.9162      9.5366      2.2261
H      4.2393      4.8733     13.6267
H      4.7246      5.6715     17.3852
C     12.1469      7.6667     11.3977
C     16.1861      6.5154      2.9407
H     14.9969      7.6074      8.5394
C     11.3452      3.9688      4.5921
C     13.3831      6.4918      5.2826
H     15.4921      0.1736      5.6098
C     14.2120      5.5168      4.6457
H     16.6115      0.0177      1.7561
H     13.0012      7.1232      8.5517
C      8.0989      6.4720      8.9480
C      4.3584      0.8974     21.0254
O      6.3168      4.3943     17.9617
C      6.3534      7.7909     15.9973
C     12.7171      6.2079     15.7377
C     11.3412      6.1797      3.6508
H     17.0565      9.0911      7.6909
H     15.5849      8.1649     11.6165
H     10.9273      2.0521      3.7274
C      2.2689      0.1225     21.7723
C     13.6054      5.1635      3.3582
C      5.1683      3.5297     15.5492
H     14.0981      4.7096      7.8916
H     10.7480     -0.9592     20.9562
H     15.3051     11.3844      1.0342
H      6.9832     -2.0527     19.4584
C     14.8456      6.5246      8.8380
C     11.2140      4.8167      5.8253
C     16.6421      1.0705      2.3163
C     14.6131      4.4591      5.6401
C     14.9542      6.3550      7.3321
C     15.0505      4.0751     13.1589
H     11.3413      5.8948     14.0239
H     17.5481      2.1021      0.7122
H     16.5749      0.1364     -0.0608
H      5.5476      1.2433     16.6909
C     12.5177      8.5899     18.0971
C      9.0161      7.1885      9.7835
H      6.1381      6.8373     16.1469
H     20.1225     10.8329     -0.1205
C      8.6978     -0.6906     20.3728
H     10.0900      6.6372     14.8952
H      5.6737      2.0792     22.5371
C     12.6902      6.9140      7.5745
C     13.6496      3.4191      5.1480
O      8.8600      5.5723     17.3231
C     11.4560      7.7372     18.5784
C      6.1998      2.2081     20.3178
C      5.3342      2.7775     19.5105
C     16.1635      1.2074      5.6910
H      7.8279      7.1067      8.2273
H      6.1285      4.0764     21.7471
H     13.4326      8.7064     19.6225
C     14.8713      4.7947      7.1033
C      3.9398      5.4365     17.9652
C      2.9155      2.4311     21.9307
H     19.7414     11.1785      1.4738
C      8.3355      7.4069     10.9438
H      3.5909      5.7153     21.2552
H     10.1881      6.7266     11.0279
H      7.2888      2.3929     20.3267
C      3.9120      3.0378     17.5882
C     17.2929      9.6896      5.5245
C      7.0158      0.4223     21.8359
C      5.6224      4.9097     21.2900
C      5.7360      1.4137     21.4847
H     13.7210      2.9061      9.0719
H     10.6546      8.3425     10.0380
H     18.6786      9.6175      0.3300
C     14.5976     10.0097      0.8548
H      3.4438      4.5245     22.4345
H     10.7966      9.5892     16.2548
