236

C     19.4879      9.1161     13.7265
C      4.0485      1.6464      6.9035
C      2.9473      3.3854      1.0647
C      6.9932      5.2984      2.8931
H     -3.3498      3.5899      2.5323
C      7.5351      3.9483      3.0656
C      3.2056      4.1523      5.5356
C     16.0348      7.4285     19.3767
C      6.1047      2.1672      4.1171
C     13.9221      8.5405     13.6089
N     -0.0971      3.0704      6.1740
C     13.4760     -6.8812      0.3768
C      3.1668      4.2097      7.1843
H     13.2487     -6.7185     -0.5103
C     15.6140      6.2963     17.4415
C     16.7838     11.0419     16.5575
H      1.3284      0.1004      9.4393
H     -1.7223      1.9803      5.1491
H      6.1566      4.8758      3.4858
C     16.7131      9.5951     16.2016
H      8.5001      3.9098      3.5149
H     12.4626      7.2657     10.4707
C      2.9772      2.7993      7.4792
H      9.3597     -2.6404      0.2128
H      6.9421      1.8727      4.6794
C      8.2863      0.4065      8.1375
H     16.1238     -7.9161      0.1055
C      7.1666      5.7014     10.0777
H     14.3875     -6.8989      9.1412
C      6.2796      3.0156      3.0590
H      6.5284      5.4789      7.7790
H      5.3054     -2.7714      7.8386
C     17.2782     11.2275     17.7715
C     10.0019     -4.5222      5.1613
O     14.8773     -4.4662      4.8094
C     11.4217     -5.4525      7.1043
C      8.6483      8.2390     12.1478
C     20.4186      7.9817     13.3005
C      6.5187      7.3004     -0.5644
H      5.1489      4.0548      1.3822
H      1.4856     -0.1515      2.8161
H      7.7942     -7.2505      8.4987
C      7.0689      6.8038     11.0382
C      7.6244      6.3116      3.7716
H     20.9841      9.5611     14.9975
C     -1.1776      6.4512      5.0498
H     16.0815      8.3615     21.3061
H      4.6810      1.2994      2.3219
H      4.0116      6.7495     -0.4832
C      9.9509     -0.8259      7.0050
C      5.9793      4.9339      9.6663
C     15.9027      7.7143     17.8079
C      4.4376      6.2873      0.2845
C     17.4773      9.4478     15.0507
H      8.8078     -5.0206      5.4336
H      8.3918      8.4193      3.2617
H      7.2277      0.0877      9.7775
H     18.0242     13.1230     17.7913
C     -0.2058      3.2266      8.4644
C     13.0245      8.2558     12.1996
C      1.6293      2.0788      7.3521
C     12.3563     -6.6199      1.4337
H      5.7452      7.8652     -1.2490
H     -3.1352      2.9145      5.1329
H      5.8467      4.8176      5.9973
C     10.0694      7.6225     13.0443
C     16.3060      8.6645     20.2981
C      3.3373      1.1768      9.2295
C      3.3360      1.8687      4.6340
H     10.5075     -2.0868      1.3474
H     18.7979     12.1316     18.9273
C      4.0743      3.6792      3.1614
H      8.6220     -2.5291      5.1927
C     10.6904     -4.2527      1.0507
C     10.9583      6.9540     11.9426
H     10.7504     -2.6476      7.5497
C      5.3978      3.0254      5.0993
H     17.4240     12.9169     19.1794
H      7.8589      3.5055      2.1619
H      8.1630      1.1320      7.3936
C      2.7119     -0.6790      7.8944
C      5.1936     -1.5366      7.9938
C     -1.7497      4.9158      3.2754
C     16.0389      9.9005     19.3960
C      2.7835      3.6668      2.4254
H      2.0316     -1.4020      7.3643
H     16.2102      8.5777     14.1145
H     -2.8680      5.3136      1.4616
H     14.4694     -9.1657     -0.3437
O      5.3844      7.0243      6.6447
C     13.5346     -5.1231      4.5260
H     16.0619     10.7807     19.8219
C     10.1985     -4.5637      3.6828
C     11.0475     -5.3562      3.1501
C     10.3456     -5.1194      7.6487
H      1.7280      2.5661      5.2518
H     13.9330      7.3060     10.4862
H      6.6970      2.3784      2.3253
H     -1.1819      2.8204      8.5273
C      3.6835      2.0553      0.7931
C     13.0011     -4.3698      2.0638
C      0.0328      3.8803      3.7792
C      7.4400     -1.7065      7.3032
H      1.5402      0.5966      4.1707
H     10.3030     -4.0362      7.3021
H     15.0495      9.7098     18.8267
H     15.2884      7.1436     13.0468
O     13.5175     -3.8437      6.3958
C      6.4918     -1.0130      8.2569
C     13.5009     -6.2461      6.6668
C     15.2231      7.9689     13.8847
H     15.5737      8.2396     15.6154
C     13.7529     -5.4533      2.8480
H      9.1290      0.9698      8.7120
C      2.5522      1.5132      3.2195
C      0.3558      2.9036      7.2498
C     10.3816     -2.1383      6.4586
C     -2.2851      2.8711      4.5187
C     17.8107     12.3312     18.4176
C      3.3771      3.4473      9.8712
C     11.6731     -5.1140      1.6541
C      4.2607     -0.6157      7.9125
N      2.2365      0.2421      3.4815
H      2.3850      0.8684     -0.0278
C      3.4611      1.2011     -0.3480
O     17.1608      6.0445     15.8742
C      9.1253      6.6558      1.2249
H     18.0714      9.8209     19.3048
H      1.4388      1.6455      8.4643
C     -2.5436      4.3439      2.3049
C     10.2507     -5.5649      9.2686
H      1.6488      1.3380      6.5532
H      7.4712      5.0309      1.3241
C     10.2024     -2.9455      0.9532
H     15.7250     -5.8599      9.2111
H     -2.6880      5.5380      6.3948
H     11.9891     -3.2905      4.9440
H     14.3806      8.9554     10.8253
H      4.1747      0.5266     -0.1515
H     -0.5179      4.1523      8.4172
C     15.2009      7.2978     15.3884
H      5.2120      5.6675     10.0611
C     14.4508      8.0933     11.1385
H      3.3930      3.1675     10.9714
H     16.9577     11.8368     15.7722
C      4.0577      8.6476      4.5382
C      7.6240      7.5614      3.0670
C     20.3352     10.1948     14.4692
C     18.5412      8.4850     14.7947
C      4.0536      6.2771      6.5580
C      1.9106      4.9543      2.3735
C      5.8088      6.3602      0.5538
C      5.3316      7.8275      4.3310
C      7.8307      7.0343      1.5766
C      4.0461      5.2469      7.7369
C     14.4273     -7.7273      0.9644
H      8.9276      5.1824      4.0350
C      6.0518      7.2901      5.5076
H      8.9777      5.6937      0.5646
C      6.8091      5.8074      1.4933
H      0.0652      3.0194      3.1591
H     11.4212     -5.8368      9.6420
O      7.3425      7.1170      5.9167
H      8.5631      9.2069     12.0485
H      1.4638      2.0601      3.0266
H     13.1227     -3.1685      2.2402
H      3.7852      5.6840      1.1809
C     12.2314      7.2416     11.4824
C     15.8029      6.2382     15.8666
H     14.1775     -5.3597      8.9503
C     -1.4656      4.0776      4.4212
C      0.4474      6.5959      5.2237
H      2.7243      0.2859      5.8621
C      1.2927      5.5226      4.7870
H      2.9677      0.2803      1.6623
H     12.9014     -5.7669      8.6531
C      8.3546     -7.2063      9.3367
C      4.5075      0.9019      8.1419
O      6.0532      4.2994      5.1865
C      6.0747      8.0846      3.0656
C      9.7167     -2.9162      5.4372
C     12.9501     -6.7066      2.7890
C     -1.3679      6.3114      3.5125
H     17.3471      8.8448     20.1408
H     15.0593      7.3486     11.6640
H     -2.9291      2.4806      3.7835
C      2.3766      0.2451      8.6959
C      0.7719      5.0519      3.3348
C      5.0470      3.4649      2.3855
H     14.0387     -8.2710      8.2005
H     10.4198     -0.5697      7.9069
H      7.0607     -2.6296      6.7904
C     14.8886     -6.1899      8.6320
C     -1.6576      5.0654      5.8418
C      3.4750      1.1974      1.9521
C      1.7117      4.4598      5.7693
C     14.7814     -6.4868      7.2194
C     15.1863     -8.5095      0.0356
H     11.4644     -7.0149      1.1377
H      2.9885      1.8995     -1.1326
H     11.2795     -1.5969      6.0049
H      5.2713      1.5490      3.8381
C     12.5301     -4.2354      5.3160
C      8.9913     -6.0876      9.8365
H     17.6026      4.9882     15.4181
H     20.5509     10.8924     13.5717
C      8.5205     -0.8242      7.4024
H      9.5956      6.6434      2.2000
H     10.0206     -2.5691      4.3053
H      5.6106      2.4416      9.1669
C     12.5436     -6.0036      7.6041
C      0.8628      3.2335      5.0485
O      8.6930      5.9961      4.4754
C     11.3968     -5.1966      5.6156
C      6.3296      2.0116      7.3866
C      5.4776      2.2639      6.4777
C      3.2889      1.1013      5.7831
H      5.7463      4.1465      7.3540
H     13.3786     -2.7406      6.1229
C     14.7470     -7.9479      7.1148
C      3.8223      5.5046      5.1629
C      3.3402      2.5671      8.8271
H     19.4455     10.2401     15.0267
C      8.4753      7.4278     10.9844
H     10.6369      5.9642     11.5772
H      7.2888      2.3974      7.1955
C      3.8773      3.2667      4.6025
C     17.2031      9.7814     18.4482
C      7.0605      0.3844      8.8110
C      5.4943      4.8501      8.0371
C      5.8058      1.3055      8.5080
H      0.6514      2.6887      9.2632
H      9.7608      0.0758      6.4760
H     18.9251      9.4393     12.9175
H      3.2070      4.4546      9.5930
H      9.6814     -3.9511      2.9679
