241

C     19.5890      9.2413     13.9026
C      4.0338      1.7396      6.9107
C      3.0423      3.4166      0.8880
C      7.3425      5.1920      2.6295
H     -2.6084      3.4392      2.2123
C      7.7106      3.6819      2.8913
C      3.3057      4.2969      5.5547
C     15.7928      7.1906     19.5624
C      5.9790      1.8644      4.2702
C     13.8099      8.9277     13.5681
N     -0.2237      3.0070      6.1012
C     13.3212     -6.9821      0.5965
C      3.1749      4.1589      7.2254
H     13.0570     -6.6038     -0.3006
C     15.8356      6.3741     17.3695
C     17.0737     10.9691     16.4549
H      1.5301     -0.4722      9.0832
H     -2.2049      2.3916      5.1596
H      5.9873      5.4262      2.8669
C     16.6706      9.3489     16.1480
H      8.0839      3.4005      3.8707
H     12.6155      6.8429     10.9443
H     -0.6607      5.0614      6.3941
C      3.1020      2.8278      7.5965
H      9.2584     -3.1119      0.2321
H      6.7921      1.2296      4.7435
O     14.5591     10.9143     14.6828
C      8.3464      0.4577      8.1596
C      6.6967      5.8659     10.1590
H     14.0957     -7.2256      9.3362
C      6.5904      2.6989      2.8901
H      6.5359      5.0816      7.6232
H      5.1356     -2.6700      7.8152
C     17.3326     11.0386     17.7916
C      9.8328     -4.6136      5.2056
O     14.8704     -4.5672      4.9819
C     11.1406     -5.5073      7.1338
C      8.7092      7.9699     12.1797
C     20.4763      7.9869     13.2917
C      6.2854      7.4652     -0.4744
H      5.3273      3.8602      1.3166
H     17.3724     10.3319     14.4023
H      1.7731     -0.0600      2.9841
H      8.7592     -8.0103      8.9057
C      6.9132      6.9430     11.0647
C      8.1759      6.0819      3.3696
H     21.2009      9.8673     14.7382
C     -1.0913      6.4771      5.1055
H     14.6590      8.7686     20.3093
H      4.7848      0.6010      2.4716
H      3.6771      6.7523      0.1597
C      9.9439     -1.1906      7.0045
C      5.5359      5.5956      9.6209
C     15.9640      7.6194     18.1463
C      4.5963      6.2002      0.4073
C     17.4720      9.3475     14.8689
H      9.0886     -5.4453      4.8883
H      8.0401      8.4610      2.7106
H      3.4499      0.1681      9.8478
H      7.1948      0.4922      9.8243
H     18.4729     12.9458     17.3593
C     -0.3913      3.0369      8.4310
C     13.2273      8.5478     12.1875
C      1.6394      2.3034      7.2484
C     12.4731     -6.3678      1.4938
H      5.5869      8.2189     -0.8072
H     -3.6048      3.0688      4.3728
H      5.8007      4.7268      4.9602
C      9.9020      7.4433     12.9952
O     14.4209     10.8419     12.4646
C     15.9256      8.3700     20.3759
C      3.4724      0.8735      9.0660
C      3.4084      1.8786      4.6880
H     10.5722     -2.7219      1.7320
H     19.1293     11.8548     18.7124
C      4.1259      3.6757      3.2291
H      8.3938     -3.5498      6.7222
C     10.6077     -4.5898      0.8197
C     10.8833      7.0704     12.0646
H     10.7645     -3.0082      7.5703
C      5.5692      2.8810      5.3775
H     14.2163     11.7776     12.4861
H     17.9486     13.2681     18.8517
H      8.3218      3.8646      1.9452
H      8.0160      1.1912      7.1307
C      2.7601     -0.8478      7.6280
C      5.2564     -1.4889      8.0380
C     -2.2472      5.1096      3.2075
C     16.1524      9.6268     19.5448
C      2.9570      3.8007      2.2577
H      2.0889     -1.7869      7.2627
H     15.7681      8.6348     13.3044
H     -2.9847      4.8748      1.4894
H     15.4935     -8.4094     -0.8029
O      5.5121      7.3723      6.6590
C     13.6590     -5.0633      4.5412
H     16.7361     10.5333     19.8181
C     10.2119     -4.1940      3.6795
C     11.0090     -5.0190      3.0392
C     10.0801     -5.8883      7.8766
H      1.5905      2.9231      4.6938
H     14.2428      8.0247     10.3663
H      6.7284      2.0390      1.9860
H     -0.9841      2.8591      9.3011
C      3.7202      1.9073      0.7464
C     12.7208     -4.0072      1.7194
C     -0.1094      4.1061      3.8985
C      7.5275     -1.8264      7.6828
H      1.4234      0.7462      4.4065
H      9.3367     -6.3158      7.1431
H     15.1153      9.7778     18.9532
H     14.4626      6.8407     13.0051
O     13.2436     -3.3467      6.1144
C      6.5298     -1.0216      8.3441
C     13.4781     -6.0156      6.8585
C     14.8183      7.9337     13.5663
H     15.2833      8.2866     15.6214
C     13.6748     -5.2873      2.9503
H      9.2010      0.9083      8.5291
C      2.8993      1.4443      3.3718
C      0.3677      2.7163      7.2073
C     10.4318     -2.5474      6.6741
C     -2.3171      3.0675      4.5258
C     18.1589     12.1906     18.2677
C      3.0219      3.3291      9.9421
C     11.5565     -5.0075      1.6761
C      4.2476     -0.7970      7.5750
N      1.8523      0.6974      3.5263
H      1.7833      1.2758      0.3273
C      2.8625      1.0013     -0.0000
O     17.1264      6.1736     15.5444
C      9.3338      6.4657      1.0098
H     18.1438      9.1715     18.7286
C     -2.9969      4.3880      2.3681
C     10.2797     -5.7031      9.5928
H      1.7518      1.8246      6.2492
H      7.2700      4.8018      0.5253
C     10.0847     -3.3110      0.9156
H     15.8447     -6.3266      9.2504
H     -2.4573      5.1914      5.9235
H     11.8406     -3.0342      5.0106
H     14.5284      9.7342     10.5041
H      3.3431     -0.1090      0.0975
H     -0.9392      4.0143      8.1464
C     14.8319      7.4926     15.2108
C     14.3692      8.7453     11.1164
H      3.0918      3.1928     11.1371
H     16.2496     11.9045     16.2466
C      4.0968      8.5212      4.4732
C      7.5575      7.3582      2.8453
C     20.2295     10.3339     14.4280
C     18.5587      8.6041     14.9643
C      4.1881      6.2822      6.5811
C      2.0931      5.2016      2.2445
C      5.8521      6.4351      0.4425
C      5.6563      7.8330      4.3333
C      8.0209      6.8290      1.2711
C      4.2807      5.2075      7.6111
C     14.5207     -7.6476      0.9660
H      8.5390      4.8979      5.1349
C      6.3358      7.4587      5.5505
C      7.0561      5.8060      1.0707
H     -0.1196      3.0182      3.2745
H     11.1373     -6.4834     10.0691
O      7.4624      6.9021      5.4843
H      8.9049      9.1963     11.9062
H     12.6890     -3.0976      2.1861
H      4.6801      5.3646      1.0714
H      4.6833      5.8085      4.7285
C     12.3778      7.5231     11.9120
C     15.7570      6.3562     15.7539
H     14.5619     -5.2210      8.7751
C     -1.5441      4.1806      4.3117
C      0.5179      6.6227      5.3519
H      2.7999      0.0828      5.7588
C      1.4789      5.6579      4.7348
H      3.2114      0.2809      1.7336
H     12.5161     -5.7313      8.6816
C      8.0614     -7.2136      9.4738
C      4.5179      0.6137      7.9210
O      6.5009      4.1473      5.2680
C      6.2176      8.0968      3.1197
C      9.3088     -3.4636      5.9660
C     12.8367     -6.5397      2.9597
C     -1.5214      6.5042      3.6757
H     15.9822      8.1125     21.2906
H     15.3688      8.2588     11.6306
H     -2.4369      2.6956      3.3586
C      2.1871      0.1863      8.3603
C      0.8311      5.1620      3.4053
C      5.2755      3.5972      2.5972
H     14.3051     -8.6659      7.9500
H     10.6532     -0.1983      7.4321
H     15.6404      9.2720     16.1123
H      7.3964     -2.3035      6.5849
C     14.8151     -6.2658      8.7305
C     -1.4202      5.1409      5.6412
C      3.8214      1.0489      2.2223
C      1.7718      4.5112      5.5710
C     14.8433     -6.6059      7.3260
C     15.0360     -8.7976      0.0969
H      4.8760      2.0920      0.5715
H      3.0099      1.5759     -1.0164
H     11.3976     -2.5831      6.2041
H      5.0830      1.5598      3.5807
C     12.5296     -4.1052      5.3749
C      8.9055     -6.3843     10.0389
H     17.5314      6.9697     15.1368
H     20.6587     10.8292     13.7418
C      8.6860     -1.1249      7.6077
H     10.3293      6.5352      1.6776
H      9.4367     -2.3574      5.2817
H      5.1610      1.9227      9.1665
C     12.4127     -5.7050      7.6763
C      0.7979      3.4703      5.1535
O      8.8280      5.6095      4.6078
C     11.3494     -5.0607      5.8026
C      6.4867      2.0835      7.4124
C      5.3600      2.2517      6.5263
C      3.3427      0.9786      5.7479
H      5.4085      3.5682      8.3011
H     13.3710     -3.4273      7.2251
C     14.8331     -8.0267      7.1090
C      3.9486      5.6880      5.3245
C      3.3447      2.2339      9.1625
H     20.1273     11.2944     15.1306
C      8.3454      6.6985     11.3178
H      3.8865      5.6123      8.4084
H     11.2929      5.9105     12.1033
H      7.4297      2.7069      7.2686
C      4.0074      3.2627      4.7895
C     17.2681      9.5032     18.5739
C      6.8553      0.3863      8.8445
C      5.6015      4.6814      8.2950
C      5.8929      1.2860      8.4072
H      0.3675      2.7125      9.2184
H     10.3931     -4.6648      9.6447
H     19.1253      9.5401     12.9721
H      8.2373      5.9223     11.9739
C     14.3190     10.1875     13.7532
H      2.0468      3.7304      9.5044
