249

C     32.5835     -3.9652     13.8483
C      4.2887      1.4259      7.1764
C      2.7293      2.8851      1.1741
C      6.8680      5.0861      2.7401
H      9.8004     -9.5081      2.4852
C      7.6042      3.7155      2.7766
C     16.1807     -8.7929      5.4907
C     28.6888     -5.8861     19.4140
C      6.0226      1.9833      4.1437
C     26.8557     -4.0475     13.6675
N     -0.5870      3.2084      6.3091
C      0.8150      6.0139      0.0767
O     11.8771    -11.2227      2.3802
C     16.0183     -9.0431      6.9758
H      0.6202      5.8825     -0.9641
C     28.6284     -6.6958     17.2845
C     29.6425     -2.6686     16.5650
H      1.6219      0.0746      9.4518
H     10.1973    -10.3690      5.7217
H      6.0386      4.8313      3.4434
C     29.6684     -4.2209     16.0884
H      8.5487      3.6870      3.2810
H     25.9134     -6.0245     11.0247
H     12.0024     -8.0686      6.2748
C      3.1135      2.3480      7.4627
H     -3.7716      9.9030      1.4468
H      7.1487      1.4931      4.7744
O     27.8579     -2.4738     14.6687
C      9.0477      0.9250      7.9524
C     19.5325     -7.0030      9.9032
H      2.4564      6.8243      8.8947
C      6.3860      2.5187      2.8990
H     19.1064     -7.6752      7.6819
H      5.2057     -2.6249      7.7714
C     30.4843     -2.3928     17.5609
C      9.7172     -4.7646      4.7146
O      1.6352      8.4665      4.7637
C     -1.9874      7.1339      6.9978
C     21.4498     -4.6893     11.9841
C     33.2747     -5.0554     13.1318
C      6.1364      7.0919     -0.4802
H     30.0141     -3.7104     14.0761
H      2.4684     -0.8736      3.9593
H     -4.5994      4.8297      9.1501
C     19.5225     -6.1446     11.0264
C      7.9050      5.9005      3.6001
H     34.1864     -2.0626     13.0635
C     11.8033     -6.5408      4.8568
H     28.4302     -4.6522     21.3176
H      4.4554      1.4084      2.8540
H     30.5777     -6.2516     15.7014
C     10.1775     -1.4114      7.5744
C     18.2489     -7.3189      9.2654
C     28.7860     -5.4909     18.0689
C      4.6098      5.5222      0.4754
C     30.5947     -4.0267     15.1178
H      9.2047     -5.8866      4.7199
H      8.3873      8.5316      3.2611
H      4.1204      1.1227     10.3732
H      7.6496     -0.6765      9.2282
H     32.0342     -1.6417     18.6039
C      0.1915      2.6934      8.5739
C     26.1942     -4.1446     11.9290
C      1.6996      1.7839      7.0664
C     -0.4755      6.5508      0.7691
H      5.0003      7.5498     -0.5737
H      9.5326    -10.5074      4.2573
H      7.0785      4.1462      4.7674
C     22.8242     -5.0812     12.5829
O     27.7197     -1.7242     12.7344
C     29.0346     -4.5820     20.3373
C      3.6783      1.1992      9.4264
C      3.3057      1.5606      4.7532
H     -2.1734     10.6216      1.6772
H      6.4712      1.0573      6.1520
H      3.6910      5.7481      0.1402
C      4.1671      3.6129      3.2666
H      8.4298     -2.9386      5.7511
C     -2.1905      8.7870      0.5290
C     23.8973     -5.5071     11.5217
C      5.4498      2.7794      5.2629
H     31.5742     -0.4636     17.1400
H      7.7557      3.3610      1.7874
H      8.5040      1.8461      7.3514
C      3.1389     -0.8830      8.2356
C      5.4757     -1.4502      7.7654
C     10.7671     -8.1052      3.3535
C     28.9498     -3.2603     19.5501
C      2.9459      3.4939      2.4600
H      2.8102     -1.3939      7.3267
H     28.9358     -5.3058     13.4899
H     10.3294     -8.3243      1.3290
H     25.3389     -3.4197     11.7957
H      2.3771      3.2558     -0.6809
O      5.3376      6.7804      6.7013
C      0.2957      7.8573      4.6033
H     29.5624     -2.4324     19.7224
C     10.1123     -4.5975      3.2369
C     10.9461     -5.3828      2.5062
C     -3.0998      7.1746      7.7730
H      0.7759      2.3063      5.1047
H     28.0859     -5.6146     11.6130
H      6.6657      1.7633      2.2091
H     -0.7228      3.4290      9.1671
C      3.3437      1.5450      0.9062
C     -0.0829      8.5688      1.8309
C     11.4837    -10.0382      1.6597
C     -0.0546      3.8741      3.5709
C      7.9267     -1.0974      6.7795
H      0.6418      0.1321      3.1709
H     -3.8534      7.9057      7.3864
H     27.7710     -3.0726     19.0932
H      1.4999      6.8679      0.5051
C      6.6653     -0.6643      7.3077
C      0.1212      6.4572      6.6764
C     27.9905     -5.0474     14.0402
H     28.5534     -4.3859     15.6837
C      0.6047      7.6213      2.9352
H      9.3661      0.8328      9.1004
C      2.5981      1.1073      3.3077
C      0.3722      2.6244      7.1834
C     10.2465     -2.7301      6.9193
C     10.2995     -9.9637      4.6403
C     31.2543     -1.4012     17.8002
C      3.1195      3.4916      9.9041
C     12.7065     -9.6068      0.8996
C     -1.1172      7.9547      1.2809
C      4.4132     -0.5810      8.2276
N      1.8159     -0.1401      3.8142
H      3.3567      1.3476     -0.8838
C      3.0708      0.6387     -0.3439
O     29.8485     -6.8017     15.2963
C      9.5294      6.8005      0.7775
H     31.0741     -4.0964     19.0708
H      1.6282      0.8722      7.4021
C     10.6856     -9.0463      2.2595
C     -3.2501      7.4099      9.1872
H      2.0563      1.8278      6.0121
H      7.4709      5.0799      0.7313
C     -2.8517      9.6501      1.3587
H      0.8787      7.1866      9.2415
H     10.1427     -7.4775      6.1922
H     -1.2356      9.6529      4.5830
H     28.0224     -4.4143     10.0168
H      1.9879      0.3946     -0.3598
H      1.2221      2.9517      9.0426
C     27.8019     -5.4875     15.3067
H     17.5166     -7.6111     10.0775
C     27.6333     -4.4791     11.3019
H      3.5994      3.3286     10.9403
C      4.3471      7.9615      4.4597
C      7.9930      7.4186      3.1263
C     33.2148     -2.4333     13.6464
C     31.9328     -4.2677     15.1508
C      4.1784      6.1092      6.3820
C      1.9632      4.8424      2.2808
C      5.7337      6.2538      0.7170
C      5.7098      7.6379      4.4398
C      7.9477      7.0051      1.1190
C     16.7426     -7.9215      7.4109
C      1.7031      4.8673      0.9475
H      7.3324      8.6407      6.1287
C      6.2140      7.0528      5.5610
H      9.4214      5.9138      0.1601
H     13.1592     -9.4563      2.0959
C      6.9742      5.6909      1.3346
H      0.6155      2.8947      3.1188
O      7.5059      7.6175      5.9514
H     21.6881     -3.6174     11.4713
H      1.8990      1.8288      2.9799
H     -0.2249      9.6293      2.1964
H      4.5996      4.5939      1.0691
H      4.7868      5.4578      4.2636
C     25.3974     -5.2329     11.5815
C     28.5918     -6.6647     15.7959
H      1.5775      5.2658      9.1864
C     10.6082     -8.7093      4.6203
C     13.0979     -6.3500      5.2195
H      3.1873     -0.1496      5.9588
C     14.2422     -7.2855      4.5322
H      3.9620     -0.2937      2.6434
H     -0.8811      5.7148      8.4186
C     -5.0213      5.7955      9.2114
C      4.6323      0.8058      8.5133
O      6.1523      4.1545      5.1483
C      6.5900      7.5896      3.1451
C      9.5244     -3.2573      5.6353
C     -0.0252      6.0669      2.5673
C     11.5769     -6.7831      3.1890
H     30.0171     -4.6697     20.7224
H     28.0997     -3.4903     11.6347
H     26.8382     -0.9562     12.2059
H     11.1377    -10.4722      4.3868
C      2.5858     -0.0733      9.1645
C      0.8499      5.1917      3.2944
C      5.2495      3.2299      2.4155
H      0.7191      4.1610      7.4886
H     11.1580     -1.2684      8.1046
H      7.8461     -1.5642      5.8624
C      1.5894      6.2597      8.7557
C     11.1256     -7.7646      5.7260
C      3.6228      0.7151      2.2587
C     14.5010     -8.4699      5.6136
C      1.4498      6.2037      7.2290
C      2.2517      3.8010      0.3287
H     -1.3775      5.7292      0.6893
H      4.5740      1.7742      0.9737
H      3.4920     -0.3124     -0.6978
H     12.8648    -11.4827      1.9901
H     10.9642     -3.2522      7.5874
H      5.4072      0.8742      3.9942
C     -0.8512      8.7603      5.2040
C     -4.3767      6.9855      9.8043
H      6.3127      6.8259      2.5953
H     32.6610     -1.7614     12.9685
C      9.1822     -0.5536      7.5613
H     10.1341      6.8546      1.9309
H      9.7979     -2.6109      4.7981
H      6.4518      1.6939      9.7719
C     -0.8076      6.7045      7.6953
C      0.3844      3.3108      4.9830
O      8.7143      5.4099      4.3073
C     -1.7746      7.6668      5.4849
C      6.0315      2.7654      7.8197
C      5.8808      2.0864      6.5088
C      3.6267      0.9200      5.9822
H      5.1970      3.4233      8.3508
C      1.5533      4.4382      7.0620
H     10.8020    -10.3895      0.7061
C      3.9908      5.3119      4.9756
C      3.2480      2.5877      8.9613
H     33.2612     -1.8419     14.4955
C     20.9476     -5.6529     11.0058
H     16.4035     -7.6474      8.3650
H     23.7659     -6.6267     10.8518
H      7.2247      3.1960      8.1493
C      3.9159      2.9769      4.7531
C     30.1678     -3.5854     18.5084
C      7.1162      0.3054      8.3937
C     18.4134     -8.0034      8.1568
C      6.1683      1.4432      8.7204
H     -0.1260      1.8690      8.9338
H     -2.8317      8.5673      9.3020
H     12.8593     -8.5014      0.5407
H     31.8338     -3.5901     12.8728
H     13.2429    -10.5181      0.2551
C     27.2685     -2.5546     13.7359
H      2.8330      4.4943      9.4896
H      9.7858     -3.7454      2.5584
