262

C      6.7034      9.1064     14.0073
C      4.1729      1.5336      6.9551
C      2.9246      3.2560      1.2322
C      7.4566      4.9180      2.4212
H     -2.5996      3.3568      1.8385
C      7.5773      3.4773      3.0126
C      3.2050      4.0918      5.3990
C      6.8289      9.6561     10.8577
C      3.1391      7.0247     19.4468
C      6.0717      2.0508      4.2895
C      6.3926      8.4038      9.9789
C     13.5812      8.7820    -12.1421
N     -0.2136      3.2381      6.4473
C     13.4936      6.0166    -12.5685
C      3.1825      4.0019      6.9340
H     13.3245      6.7010    -13.4117
C      2.9007      6.1926     17.3411
C      3.9134     10.3785     16.6546
H      1.2309      0.1042     10.0391
H     -1.8623      2.6167      3.8270
H      5.0947      6.4244     16.1107
H      6.2037     11.6783     11.0665
C      4.1223      9.1387     16.2521
H      8.0184      9.6628     10.3392
H      7.7979      3.5032      4.2867
H     12.6729      6.9569    -15.0475
H     -1.3144      4.9137      6.3070
C      2.9947      2.7021      7.3648
H      9.7722     10.6845    -13.5754
H      7.0930      1.7309      4.6090
O     14.9634     10.3797    -10.9253
C      8.1571     -0.0347      8.6369
C      6.8423      6.1314      9.6198
H     14.5441      5.7605     -3.8897
C      6.3180      2.6375      3.0354
H      6.5051      5.2291      7.4224
H      7.1971      9.0357     11.7742
H      5.0814     -2.9708      8.3630
H      4.8660      6.9670     10.1537
C      4.5585     10.7866     17.8293
C      9.9351      8.6031     -7.9275
O     14.8498      8.4825     -8.2853
C     11.1963      7.8127     -5.8972
C      8.7608      8.1501     -0.9392
C      7.5034      7.9530     13.0433
C      6.2916      7.2946     12.3799
H      4.9406      3.5996      1.4822
H      2.1569     -0.6712      4.4751
H      8.4939      5.2753     -4.2995
C      6.9087      7.2163     10.7547
C      7.9645      5.8123      3.3576
H      8.1470      9.6979     15.1261
C     -1.3139      6.6398      4.8599
H      2.2466      8.0496     20.5824
H      4.9998      1.0398      2.2322
H      4.9499     10.6657     10.2620
H      3.7947      6.1268     12.9946
C      9.7644     11.9678     -6.0527
C      5.7642      5.5812      9.1684
C      2.9730      7.4542     18.0756
C      4.7834      5.7316     13.6970
C      4.5332      8.8716     14.8816
H      9.1448      7.9865     -7.4663
H      8.5077      8.0074      3.1819
H      3.8217      0.9850     10.2489
H      6.5442      0.0931      9.9586
H      5.0586     12.7100     17.0732
C      0.0821      2.6167      9.0327
C     13.0143      8.5692    -13.6553
C      1.4979      1.7933      7.0865
C     12.3787      6.5902    -11.5966
H      5.4777      8.0657     12.6207
H     -1.6195      2.2819      5.4951
H      6.6448      3.9288      6.0958
H      5.0799     10.6976     11.8444
C     10.0863      7.6198     -0.1118
O     14.7602     11.2820    -12.8794
C      6.8565      8.6999      8.5723
C      3.3066      8.4632     20.4587
C      3.2381      1.0491      9.3809
C      3.5785      1.6025      4.6176
H     11.1619     10.8183    -12.3602
C      4.0284      3.3365      3.2250
H      8.4176     10.1997     -7.4017
C     10.6799      8.8142    -12.3622
C     11.1366      6.6771    -13.6769
H     10.6568      9.9026     -5.7774
C      5.3180      2.9612      5.2646
H      5.7391     12.1072     18.7902
H      8.0941      2.6670      2.2811
H      8.4364      1.0684      8.9486
C      2.4579     -0.5502      8.3104
C      4.8572     -1.8997      8.0964
C     -2.6324      5.1699      3.2952
C      3.0507      9.6882     19.3932
C      2.7094      3.6718      2.5137
C      5.1265      8.0088     10.1105
H      1.8358     -1.4400      7.7521
H     16.0819      8.5685    -11.7572
H     -2.5488      5.0555      1.3603
H     14.7815      4.0035    -13.5516
O      5.2965      7.1040      6.8885
C     13.4666      8.1396     -8.6802
H      2.7901     10.5813     19.8025
C     10.0663      8.4648     -9.4136
C     10.9586      7.6265    -10.0589
H      5.9748      9.4301      8.3466
C     10.3082      7.2796     -5.0006
H      1.0229      2.6610      4.7956
H     14.8413      7.5372    -14.9759
H      6.3416      1.8654      2.3141
H      0.6579      1.7039      9.0023
C      3.6285      2.0512      0.6991
C     12.8435      8.7086    -10.8890
C     -0.4263      4.0882      4.0317
C      7.2232     -1.5206      6.9780
H      1.4974     -0.6800      3.1050
H      9.2589      7.1403     -5.8247
H      2.1569      9.0882     19.2325
H     15.2532      6.9693    -12.7320
O     13.2365      9.6455     -6.7373
C      5.9374     -1.0422      7.7440
C     13.3366      6.8314     -6.2922
C     15.1257      8.0946    -11.9745
H     15.4424      8.3058    -10.2193
C     13.5017      7.6891    -10.0662
H      8.2500     -0.9091      9.5027
C      2.8886      1.1298      3.2350
C      0.5645      2.9003      7.6371
C     10.3408     10.5652     -6.6464
C     -2.2607      2.8516      4.8591
C      4.9700     11.9839     18.1602
C      2.4613      3.3043     10.0532
C     11.6305      8.0025    -11.3544
C      3.8821     -0.6842      8.0024
N      2.4214     -0.3408      3.4497
H      1.5515      1.5381      0.3316
C      2.5490      1.0120      0.0835
O      4.2136      6.7855     15.6938
C      9.4333      6.9083      1.0266
H      1.4314      0.6833      7.4281
C     -2.1313      4.3432      2.0586
C     10.1586      7.5421     -3.6238
H      1.3652      1.9691      6.0707
H      7.4820      5.1529      0.3457
H      7.8208      9.5371      6.9992
C     10.2986      9.9848    -12.7740
H      4.2992      8.7886      9.8179
H     15.6137      6.8912     -4.0044
H     -2.7464      6.0925      5.6305
H     12.0607      9.7139     -8.4163
H     14.7564      9.5129    -14.9776
H      2.6222     -0.0381      0.5224
H     -0.7238      2.1282      9.5388
C     14.8822      7.5485    -10.5341
H      5.1328      5.4293     10.1044
C     14.4297      8.5100    -14.4918
C      5.8517     10.7094     10.7595
H      2.5060      3.2616     11.3294
H      3.7001     11.0478     15.6420
C      4.3585      8.0977      4.5566
C      7.7328      7.3587      2.9469
C      7.7515     10.1915     14.3678
C      5.7800      8.3324     14.9577
C      4.2517      6.0133      6.5629
C      1.8200      5.0593      2.4094
C      5.9730      6.2854     13.2855
C      5.6510      7.4229      4.4624
C      8.0684      6.9179      1.2991
C      4.0421      5.1090      7.6596
C     14.4594      5.1442    -11.9309
H      8.7761      6.4788      4.8609
C      6.2679      7.3072      5.7024
H      9.3767      5.7778      0.5888
C      7.1220      5.7996      1.1767
H     -0.6931      3.4296      3.1372
H     11.1999      7.2928     -3.1277
O      7.4145      7.3490      5.8752
H      8.8108      9.2170     -1.2048
H      2.0165      2.0759      3.1969
H     12.7810      9.7973    -10.6401
H      5.3435      4.8507     14.0567
H      4.7081      5.5031      4.6862
C     12.2640      7.3297    -14.2051
C      2.6683      6.3679     15.8658
H     14.1670      7.3486     -3.9050
C     -1.8666      4.3033      4.6336
C      0.2427      6.8379      5.2103
H      4.7933      8.1523     11.2213
H      2.8244      0.1171      5.8059
C      1.2285      5.8197      4.6234
H      3.8460     -0.1288      1.5907
H     12.5529      7.0416     -4.4387
C      8.0302      6.0600     -3.9161
C      4.4398      0.6653      8.1540
O      6.1529      4.2047      5.3017
C      6.3277      7.5811      3.2601
C      9.4687     10.0641     -7.7961
C     12.7667      6.2845     -9.9828
C     -1.6743      6.3740      3.3751
H      4.2163      7.8689     20.9836
H     14.9924      8.9188    -13.6792
H     -3.4749      2.5035      4.6090
C      2.0936      0.1581      9.4374
C      0.7104      5.3391      3.3280
C      5.1237      3.3739      2.5815
H     13.9980      4.3160     -5.1101
H      8.6446      8.3441      7.9452
H     10.3915     12.2298     -4.9903
H      6.7281     -2.2533      6.3677
C     14.6507      6.5133     -4.2874
C     -1.7739      5.4617      5.6046
C      3.8328      1.1084      2.0478
C      1.4996      4.7066      5.5601
C     14.6814      6.2266     -5.8374
C     15.2176      4.1588    -12.5653
H     11.4974      5.9435    -11.6420
H      4.3416      2.2000     -0.3230
H      3.1650      0.8906     -0.9194
H     11.0427     10.3621     -7.3597
C     12.6395      8.9100     -7.7858
C      9.0243      6.8709     -3.1765
H      4.2206      6.4631     14.7487
H      8.6610     10.6379     13.6000
C      8.3731     -0.8960      7.4176
H      9.8561      6.4431      2.0643
H      9.5831     10.8219     -8.6980
H      5.8939      1.5983      9.4026
C     12.4090      7.0962     -5.4707
C      0.4830      3.6201      5.1687
O      8.5134      5.5885      4.5098
C     11.1671      7.9810     -7.4461
C      6.4162      1.7530      7.2719
C      5.4503      2.1777      6.5089
C      3.6955      0.7992      5.7440
H      7.0369      7.8958      7.7599
H      5.7508      3.7900      8.5719
H      8.7333      9.7719      8.8524
H     13.4746      9.0417     -6.0271
C     14.6379      4.7825     -5.9723
H     -1.0344      4.1382      1.7009
C      3.9042      5.2726      5.1677
C      3.1726      2.5232      9.0860
H      7.3715     11.1456     15.1154
C      8.3231      7.1308     -1.8019
H      3.4143      5.5913      8.4313
H     10.9108      5.7684    -14.1514
H      7.2650      1.8676      6.5128
C      3.9798      3.0249      4.5222
C      4.4602      9.4850     18.7659
C      6.6740      0.0123      8.9222
C      8.1655      9.2898      7.9997
C      5.5158      4.7814      7.9931
C      5.8926      1.1063      8.4822
H      0.5550      3.1194      9.7816
H      9.8924      8.6597     -3.4496
H      5.9662      9.5645     13.2605
H      8.4267      6.0342     -1.2743
H     -0.3203      4.2236      6.7262
C     14.2419     10.2936    -12.0366
H      2.4571      4.5277      9.5406
H     10.0476      9.3580     -9.9933
