263

C     19.6768     -3.8653     14.0112
C      4.1215      1.9649      7.2645
C      2.9842      3.1602      1.4286
C      7.0558      4.9095      2.3616
H     -3.9578      3.7114      2.9975
C      7.2868      3.6652      2.9053
C      3.2508      3.9968      5.4480
C      6.8295     -3.2143     10.6647
C     15.9628     -5.4826     19.2626
C      6.3937     14.8890      4.2780
C      6.2300     -4.3223      9.9479
C     13.7938     -4.3043     13.6643
N     -0.1447      3.0014      6.2549
C     13.7715      5.9337      0.4141
C      3.2402      3.9860      6.9073
C     15.8141     -6.7738     17.3130
C     16.5960     -2.1638     16.3870
H      1.2580      0.8692      9.6529
H     -1.7214      2.4036      5.6888
H      4.5733      6.6402      4.2641
H      6.0193     -1.5023     11.5018
C     16.5582     -3.6900     16.0739
H      7.7859     -2.8504      9.7134
H      7.6668      4.1081      3.7401
H     12.4883     -5.9843     10.8279
H     -1.3584      5.0906      6.7930
C      2.8889      2.6777      7.5319
H     10.0860     10.5415      0.5244
H      7.4551     14.7807      4.6397
O     14.3591     -2.1471     15.1564
C      8.3088     12.7815      8.8121
C      6.8001      6.2002      9.7067
H     15.1706      5.7016      8.9909
C      6.3702      2.4514      2.7138
H      6.2998      4.4305      7.3125
H      6.9396     -3.0235     11.8074
H      4.4471     -2.8398      8.4762
H      4.6747     -5.6005      9.5538
C     17.6545     -1.9193     17.4829
C      9.9909      8.6473      4.9715
O     14.8005      8.4421      4.7109
C     11.1062      7.5335      7.0021
C      8.5767     -4.6455     12.0816
C     20.3399     -4.7811     13.2366
C      6.1779      7.5235     -0.7151
H      5.1930      3.8440      1.5786
H      1.5297     -0.8424      3.6915
H      8.3371      5.6489      8.1557
C      6.8378     -5.6867     10.7933
C      7.4909      5.9456      3.2418
H     21.5806     -3.7702     14.6654
C     -1.1648      6.5059      5.1476
H     15.2856     -4.4815     20.6401
H      4.3113     -0.1495      2.8555
H      5.1044     -1.7226      9.7295
H     15.7127     -5.7834     13.3060
C     10.0072     12.0124      7.1631
C      5.6837      5.3174      9.3341
O      5.2362      3.0091     10.4030
C     15.7914     -5.2350     17.8316
C      4.0881      6.3089     -0.0680
C     17.1505     -3.7635     14.8933
H      8.8660      8.1001      4.9070
H      8.2115      7.7063      3.0674
H      4.0530      1.4157     10.4161
H      6.4946     12.7039      9.9649
H     17.5077      0.0600     17.4611
C     -0.2303      3.1760      8.7281
C     13.3802     -4.9674     12.4846
C      1.5601      1.8180      7.0456
C     12.2700      6.5037      1.4183
H      5.7473      8.5369     -0.9369
H     -2.6380      3.5596      6.4138
H      6.5623     16.9257      4.5060
H      4.8512     -2.6774     11.2778
C      9.7635     -5.0713     12.8508
O     14.9575     -1.9128     13.0003
C      6.6716     -4.3210      8.5746
C     16.2969     -4.4032     20.1984
C      3.2024      1.4292      9.4881
C      3.4609      1.5146      4.9565
H     11.3246     10.1908      1.8655
H      6.4171     -0.5328      6.7160
C      4.0545      3.3868      3.3161
H      8.8063     10.3498      5.3781
C     10.7410      8.7007      0.6600
C     10.8338     -5.7110     11.8767
H     10.9264     10.1013      6.7007
C      5.5332     15.8789      5.2743
H     18.5537     -0.3381     19.0928
H      8.6366     13.7203      8.6665
C      2.6298     -0.6329      9.0270
C      4.8352     -1.6378      8.3899
C     -2.2813      5.1342      3.6233
C     16.4471     -3.0649     19.3880
C      2.8086      3.5527      2.7134
C      4.7205     -4.6365     10.0545
H      2.1387     -1.6347      9.0127
H     16.3881     -4.5435     14.1869
H     -3.2461      5.3846      2.0358
H     14.8899      3.5410     -0.2618
O      5.3073      6.9942      6.2477
C     13.5808      7.9153      4.4550
H     16.5411     -1.9912     19.8712
C     10.2987      8.6376      3.5512
C     10.9236      7.6749      2.9397
H      5.5210     -4.4048      8.1011
C      9.8744      7.4370      7.8411
H      1.2301      2.4117      4.6381
H     15.4015     -5.0287     11.9305
H      6.4908      1.6830      1.8689
H      0.6973      4.0155      8.6982
C      3.7514      1.8298      1.1677
C     12.8729      8.6818      2.0474
O      6.6832      4.4740     11.3665
C     -0.0220      3.8443      3.9765
C      7.4715     -2.0387      7.3588
H      1.8424     -0.6123      5.1754
H      9.2587      6.7828      7.1784
H     15.4645     -3.3789     18.9642
H     14.5076      6.0974     -0.5799
O     12.7860      9.6952      6.3952
C      6.2138     -1.2267      7.8903
C     13.3781      6.9337      6.6339
C     15.0736     -4.9783     14.1006
C     13.5020      7.7509      3.0206
H      9.0005     12.3715      9.7698
C      2.7382      0.7059      3.7278
C      0.2780      2.5771      7.4602
C     10.5215     11.0379      6.1799
C     -2.5256      3.2013      5.3508
C     18.0578     -0.6765     18.0408
C      2.9699      3.8278      9.8703
C     11.6516      7.8479      1.5301
C      4.0086     -0.5112      8.4172
N      2.2685     -0.5110      4.0700
H      3.7082      2.0467     -1.0566
C      3.4718      1.3184     -0.3443
O     17.1020     -6.8520     15.3027
C      9.3988      6.7730      0.9907
H     18.4146     -3.5333     19.0725
H      1.2542      0.8542      7.6016
C     -3.0877      4.5221      2.7659
C     10.0597      7.6211      9.2168
H      1.5226      1.9379      6.0732
H      7.5681      4.9328      0.5487
H      8.1257     -4.1658      6.8546
C     10.7143      9.9418      1.0445
H      4.4360     -4.0859      9.2710
H     15.4569      7.2330      9.1319
H     -2.7446      5.5518      6.0020
H     12.1143      9.6910      4.3781
H     14.2678     -5.7135     10.6135
H      2.4638      1.1874     -0.3575
H     -0.0302      2.3700      9.6398
C     14.9736     -5.5368     15.3757
H      4.6624      6.1587      9.3624
C     14.2943     -4.9351     11.5163
C      5.7284     -2.1800     10.7345
H      3.2558      3.0587     10.8163
H     15.6448     -2.3485     17.3797
C      4.0927      8.5817      4.4490
C      7.4274      7.2424      2.5016
C     20.7898     -3.2323     14.7373
C     18.5336     -4.3822     14.9552
C      4.0594      6.1654      6.3165
C      1.9016      4.8728      2.5115
C      5.2644      6.3564      0.1865
C      5.0853      7.5528      4.1728
C      7.6876      6.9491      1.1877
C      4.1991      4.9926      7.5035
C     14.6088      5.0776      1.0269
H      7.5336      6.7025      4.6660
C      5.9848      7.5460      5.3437
H     10.2124      5.9209      0.6903
C      6.8141      5.6886      1.0020
H     -0.2299      2.9288      3.2657
H     10.9525      7.1496      9.4750
O      7.1492      7.8175      5.3606
H      8.6958     -3.5118     12.0107
H      1.6866      1.0991      3.3608
H     12.6929      9.7829      2.6014
H      3.6973      5.3432      0.4696
H      4.9392      5.3755      4.7269
C     12.1259     -5.4373     11.8339
C     15.7425     -6.7775     15.7455
H     13.7873      6.9834      8.6766
C     -1.5834      4.2923      4.7756
C      0.3455      6.7438      5.3121
H      4.8116     -4.5369     10.9800
H      3.7661      0.1316      6.7337
C      1.2735      5.5732      4.6695
H      2.8749      0.2114      1.8081
H     16.4165     -1.5568     15.4560
H     12.3039      6.6360      8.4532
C      8.1414      6.0510      9.3161
C      4.2389      1.0274      8.4692
O      6.3836     17.1113      5.4484
C      6.0792      7.6879      2.8958
C      9.8952     10.2999      5.1643
C     12.6765      6.2234      2.7439
C     -1.5927      6.4140      3.6272
H     16.9572     -4.7302     21.0684
H     14.5840     -3.8227     11.1913
H     -3.1523      2.9486      4.4410
C      2.1927      0.5869      9.5983
C      0.7346      5.1561      3.3728
C      5.1317      3.1849      2.3885
H     14.4999      4.2830      7.8326
H      8.2333      8.1163      9.3370
C      5.8661      4.1973     10.4519
H     14.6376     -2.6739     16.0712
C     14.7883      6.4913      8.4038
C     -1.6799      5.4574      5.8464
C      3.5804      0.6502      2.4890
C      1.6582      4.3686      5.3584
C     14.6979      6.2252      6.9826
C     15.5155      3.9554      0.4217
H     11.6574      5.6904      0.9988
H      4.8894      1.6760      1.3378
H      3.9489      0.3253     -0.8877
H     11.2898     11.4893      5.4790
H      6.1602     13.8225      4.4697
C     12.4759      8.9335      5.3062
C      8.7445      7.4370      9.7419
H     16.7834     -6.7307     14.3783
H     21.1157     -2.0965     14.1666
C      8.5515     11.7286      7.8186
H      9.8200      7.0683      1.8584
H      9.8758     10.7393      4.2294
C     12.2656      7.0166      7.4763
C      0.7612      3.3155      5.1235
O      7.7471      5.6922      4.4790
C     11.3311      7.9470      5.6413
C      6.4314     14.7072      7.2880
C      5.4137     15.3778      6.7231
C      3.6565      1.1244      6.1982
H      6.9349     -5.4246      8.4572
H      4.9986      3.6198      8.5993
H     12.8600      9.0660      7.1514
C     14.8532      4.7959      6.7954
C      3.9473      5.3756      5.0789
C      2.8347      2.7171      9.0438
H     20.6679     -3.1542     15.9396
C      8.4787     -5.6327     11.1849
H      3.6050      5.1954      8.3027
H     10.5118     -5.9836     10.7539
H      7.3452     14.2322      7.0103
C      3.9740      2.8525      4.7014
C     17.5797     -3.1226     18.4090
C      6.7162     12.6998      8.8609
C      7.6656     -3.3516      7.7473
C      5.3953      4.5388      8.0854
C      5.8598     14.0564      8.5439
H     -1.0912      3.7164      8.5428
H     10.2063      8.9752      9.3329
H      9.7085     13.0429      6.6008
H     19.1813     -3.0600     13.6276
H      9.0993     -6.6037     11.0293
H     -0.9905      3.5333      6.2487
C     14.7197     -2.8861     13.5686
H      2.0184      4.1814     10.0807
H     10.4128      9.4367      2.9258
