267

C     19.8662      8.6642      0.7678
N     10.5129     10.5134      1.8127
C      3.8877      1.7544      7.0066
C     15.4518      2.2615      2.1194
C      7.7270      4.7164      2.1673
C      7.6691      3.2581      2.8808
C      3.3836      3.8103      5.1959
C     16.1074      6.9885      6.2767
C      6.2842      1.6617      3.9121
C      5.2103      8.1688      9.1078
C     13.6072      8.9240      0.9449
N     13.7513      2.3038      5.7446
C     13.9958      6.5686      0.4898
O     11.7329      3.0320      1.8296
C      2.9864      3.9721      6.9648
H     13.8928      7.2589     -1.6463
C     15.6473      6.2361      4.1779
C     16.3951     10.5295      3.5288
H      1.6612     14.4226     10.3098
H     10.8196      2.2887      5.1211
H     16.9974      7.0164      1.8708
C     17.0325      9.1732      3.3181
H      5.0703      6.9889     10.6902
H      4.2066      9.0293      9.1725
H     11.1900      5.4235      7.1734
C      2.8746      2.7609      7.5707
H      7.2319      1.5117      4.5910
O     14.2068     10.6369      2.3772
C      7.9999     12.7980      8.3921
C      6.0382      6.0578      9.7591
H      3.3114      5.2868      8.2491
C      6.4894      2.6690      2.9190
H      4.5892     10.7918      9.5345
H     15.5441      6.5325      8.9751
C     17.0194     10.9435      4.8499
C      9.9487      8.4767      5.0288
O     14.8053      8.5847      4.6581
C     11.5786      8.4020      6.9789
C      8.8078      7.9253     12.1796
C     20.5571      7.4604      0.1356
C      6.3660      6.8556     12.2637
H     18.4532      4.3043      1.2750
H     17.1824      9.3765      1.1300
H     14.2394     -0.6463      6.0017
H      7.9504      6.3542      7.9789
C      8.0120      3.0273      9.0042
H     13.3768      1.6209      2.5945
C      7.1680      6.7773     10.6733
C      7.9216      5.6253      3.2151
H      8.1153      7.2092      1.8911
C     11.7558      6.8042      5.0186
H     16.3843      8.0955      8.1128
H     16.5915     11.1273      2.5654
H     15.6502      5.5425      0.2877
C      9.7343     11.4483      7.4092
C      6.1984      4.7215      9.0713
C     15.9522      7.7132      4.8888
C      4.7204      5.1488     12.7922
C     17.7333      9.0085      2.0822
H      9.1166      7.6118      5.1308
H      3.7244     14.3836     10.6710
H     18.5165     12.0012      3.6982
C     -0.2192     16.4166      7.9586
H     19.8841     10.5698      1.0244
C     12.5676      8.7615     -0.3378
C      1.6500     14.7674      8.1259
H     11.0388      6.2916     -2.3550
C     12.5113      6.4742      1.3069
H      5.5183      7.3975     12.0792
H     19.5925      9.3003     -0.1484
C     10.3906      7.6263     -0.5309
O     15.3966     10.7131      0.3891
C      6.3861      8.3288      8.5889
C     16.4909      8.0909      7.0941
C      3.4015     14.6840      9.5248
C     15.4182      1.2175      4.9469
H     11.5742     10.2627      2.2708
H      5.5867     12.3957      6.9754
H      2.1220     17.4974     10.0050
C     17.0799      3.4020      2.9509
H      9.4695      8.7935      7.8025
C     11.2823      8.6420      0.2397
C     11.5011      6.7503     -1.3429
H     10.9831     11.2741      5.8550
C      5.4166      2.4126      4.8724
H     17.2288     13.2634      4.4696
C      2.4301     12.7375      9.1559
C      4.5439     11.4262      8.5105
C     10.7755      5.0520      3.6644
C     16.6479      9.5388      6.6242
C     15.5443      3.5982      2.5283
C      4.8268      6.8497      9.6327
H      3.0608     12.2688     10.2244
H     15.3448      8.4317      0.2744
H     11.4174     10.8266     -0.0804
H      8.7922      6.0512      4.9447
H     13.8496      3.7110     -0.3927
O      5.5861      6.4216      6.4267
C     13.6668      7.9968      4.4696
C     10.1331      8.7753      3.6065
C     10.7985      7.6524      2.6706
H      7.0093      7.6368      9.1009
H      8.3758      3.3309      3.7292
C     10.5318      8.2659      7.9925
H      2.5540      3.4709      4.8616
H     12.3535     10.8280     -1.5454
H      5.0231      3.3941     12.1001
H      0.3938     16.8091      8.8107
C     16.3572      0.9345      2.1370
C     12.9072      8.6224      2.2529
O      4.4160      3.8489     12.8986
O      7.3747      3.9395     11.0502
C     12.9189      3.1476      1.4541
C     13.3009      3.5887      3.6329
C      7.0767     10.8500      7.5737
H      9.9678     11.1960      8.5835
H     15.8260      9.3975      5.8749
H     12.5155      8.4085     -2.1777
O     13.4658      9.8855      5.7749
C      5.8729     11.7831      7.9436
C     13.5032      7.0822      6.5394
C     14.5827      7.9006      0.8167
H     15.5767      8.7817      2.2829
C     13.7427      7.6565      2.8796
H      8.4977     13.7090      8.4281
C     15.0408      0.0703      4.1384
C      0.4298     15.2724      7.3764
C     10.0886     10.6734      6.2850
C     10.6084      3.3140      5.5263
C     17.9188     12.2968      4.6349
C      3.1421     17.0461     10.1197
C     13.8843      2.1930      1.4995
C     11.6836      7.9051      1.6586
C      3.8340     12.6078      8.5497
N     14.7782     -0.8302      5.2060
C     16.6954      0.9998      0.5726
O     16.8774      6.0763      2.0814
C      9.6642      6.4792      0.5961
H     18.2968     10.5817      6.3941
H     -0.2357     14.3358      7.0978
C     10.3066      4.5521      2.3224
C     10.6473      7.8144      9.3931
H      8.0761      2.9353      8.0320
H      2.1260     13.9810      7.5009
H      8.5264      3.8084     11.3193
H      8.2416      9.1730      8.1402
C     10.5316      9.9809      0.3701
H      4.0938      6.2662      9.1687
H     14.1084      7.1121      8.8899
H      9.6124      2.8663      5.5588
H     12.6477      9.7855      2.6992
H     13.8627     10.2419     -1.2201
H     17.6700      1.1753      0.3919
H     -1.2135     16.1831      8.3382
C     15.0894      7.5768      2.2722
H     16.8648     -0.0964     -0.0533
C     12.9155      9.9881     -1.2786
H     14.7851     -1.9224      4.9633
C      4.3123      8.1009      4.3082
C      7.8322      7.0966      2.8960
C     20.6025      9.8630      1.2708
C     18.8244      8.0912      1.8637
C      4.1888      5.8650      6.0810
C     14.8045      4.8888      2.3677
C      6.3397      5.4325     12.8325
C      5.5227      7.3475      4.1146
C      8.3698      6.3853      0.6619
H     12.2196     12.2850     -0.1392
C      4.0579      4.9252      7.3332
O     12.4474     11.3937      0.2513
C     14.5795      5.2824      0.8172
H     10.0948      5.8448      5.7300
C      6.2607      7.0671      5.3888
H     13.1134      1.5791      5.2667
H      9.3277      5.1850      1.9102
H     13.9566      1.9731      0.4504
C      7.4142      5.3228      0.7255
H     12.3249      3.7863      3.4472
O      7.3762      7.1508      5.4171
H      8.3024      8.9100     11.6040
H     20.5918      9.7602      2.4423
H     14.0820      2.6249      3.6803
H      9.9086     11.2498      1.9372
H     15.6696      4.6630     -0.5493
H      8.3195      2.2023      9.6575
H      4.5228      5.1254      4.0425
C     12.7925      7.8055     -1.4906
C     15.7035      6.3046      2.7805
H     14.1846      5.7150      8.8156
C     11.1911      4.5112      4.9711
C     13.2549      6.7770      5.1934
H     17.6809      7.9209      7.4779
H     16.3135      1.9391      4.4047
C     14.1048      5.6792      4.6229
H      1.5508     12.5348      8.2427
H     15.1899     -0.9962      2.4871
H     15.1238     10.6327      3.0311
H     13.3915      8.4874      8.3144
C      8.9186      6.5865      8.3256
C      4.3541     13.8861      8.6847
C      6.4642      7.6349      3.0300
C      9.4532      9.5405      5.8997
C     13.0446      6.3358      2.7515
C     11.5998      6.5628      3.5277
H     15.4015      3.7021      0.4960
H      4.5988      5.8592     12.0139
H     11.0240      3.5282      6.6357
C      2.1693     14.1356      9.3485
H     12.0860      9.3669      7.1662
C     13.6819      5.1156      3.3522
C     18.4123      3.5331      2.4203
H      0.6534     17.2495      7.4910
H      6.9165      8.6353      6.8727
C      7.3305      3.9202      9.7058
H     10.5785     12.3844      7.1869
H      7.3603     10.5627      6.3327
C     14.7786      6.5862      8.4069
C     11.1716      5.6854      5.9493
C     15.4542      0.0793      2.9469
C     13.8932      4.6478      5.5562
C     14.7646      6.3839      7.0204
C     14.6758      4.2129     -0.1127
H     12.0228      5.4552      1.4848
H     17.2494      1.3127      2.5786
H     11.6588      7.9640      9.9208
H     16.1484      1.9442      0.1186
H      9.7725      6.3306      7.6248
H      6.0987      0.5807      3.3589
C     12.5418      9.1727      4.8166
C      9.3009      7.1780      9.5508
H      4.2929      6.0858     13.1970
H      9.4020      9.1431      2.9896
C      8.3304     11.6700      7.7984
H      9.6098      3.6873      2.4345
H      8.4680      9.2717      6.0162
C     12.8150      7.6164      7.4831
C     13.6065      3.4259      5.0253
O      8.4503      5.3802      4.3506
C     11.4165      8.2391      5.4520
C      6.1332     14.5560      7.1551
C      5.1523      2.0818      6.4413
C     16.1028      0.7310      6.1788
H      7.2666     14.5642      6.8513
H      4.6723     16.3214      8.7743
H      6.5794     12.8485      9.8402
H     12.9553     10.5340      6.1493
H     18.2723     12.2786      5.6287
C     14.6944      4.9332      6.8898
H     13.0637      4.1117      0.9411
C      3.6331      5.2523      4.7790
C      3.4544     16.1390      9.0032
H     21.6808      9.7690      1.2867
H     13.6338      6.5012     -0.6319
C      8.4789      7.0729     10.8910
H      2.7419     16.5014     10.8526
H     12.1002      6.1180     -0.5856
C     17.3473      3.0558      4.4124
C     17.6879     10.1028      5.8504
C      6.6456     12.8851      8.7463
C      7.3033      9.1882      7.7605
C      5.2984      4.1425      8.1645
C      5.8234     14.2082      8.5184
H      9.6277     10.0624     -0.0628
H     10.1244      5.5770      0.6220
C     14.4576     10.1828      1.2398
H      3.7056     17.8676     10.5252
H     11.1862      9.5424      3.6345
