268

C      6.7757      8.5177      0.4057
N     -2.7335     10.5907      1.8044
C      3.8052      1.5147      7.0513
C      2.4015      2.5056      1.9367
C      7.3967      4.6581      1.7570
H      9.7844      6.8569      3.3181
C      7.4693      3.4246      2.4324
C      3.3726      3.8929      5.3667
C      3.4613      7.4142      6.4207
C      6.4801     14.7318      4.1636
C      6.3660      8.3069      9.0555
C      0.6614      8.6544      0.9887
N      0.2588     15.8402      6.2931
C      0.5260      6.1945      0.6986
O     -1.3323      2.7881      2.1369
C      3.1833      4.1614      6.9429
H      0.5361      7.2196     -1.6907
C      2.8349      6.3603      4.2739
C      3.9762     10.1994      3.2274
H     10.5498      2.4904      5.7528
H      4.5592      6.8475      1.2800
C      4.1429      8.7516      3.0508
H      4.8327      7.3738     10.0946
H      1.7195     16.4066      9.2018
H     11.7027      6.4322      7.2837
H      5.4693     14.1624      9.5503
C      3.0374      2.8138      7.6622
H      7.4509     14.9014      4.6507
O      1.3595     10.6419      2.4476
C      7.4343     11.7781      9.5475
C      6.3176      6.0693      9.6492
H      2.9754     -0.0954      6.2468
H      4.1233      5.4547      8.6109
C      6.4600      2.7046      2.9580
H      5.1311      3.3907      7.6333
H      1.6221     20.5271      9.0898
C      4.2120     10.7109      4.5421
C     10.4639      8.6801      5.1415
O      2.3675     21.5576      4.4356
C     11.9340      8.5947      6.9349
C      8.9311      7.9874     12.0985
C      7.6499      7.4841     -0.1828
C      6.6221      6.6632     11.8842
H      4.8067      3.5722      1.3113
H      4.8910      9.8061      1.7476
H      2.1602     -0.8348      5.3597
H      7.6894      6.4204      8.2879
C      7.8163      3.3539      8.5853
H      1.0074      0.8814      2.0221
C      7.2660      6.5816     10.5882
C      7.8115      5.6224      2.7411
H      7.9354      8.0257      1.8965
C     12.1732      7.0101      5.3333
H      3.4996      8.6137      8.1830
H      4.2735     11.1793      2.3911
H      2.4882      5.3134      0.5788
C      9.2713     11.2961      7.6956
C      5.9822      4.7064      9.1690
C      3.2834      7.6502      5.0389
C      4.7200      5.1190     12.4496
C      4.8058      8.7334      1.8395
H      9.7828      7.8636      5.7451
H      8.1433      7.8993      3.4152
H      3.7588     13.8181     10.1827
H      4.8775     10.2680      9.4844
H     -2.2015      2.4659      1.7636
H      4.4090     12.5095      3.2224
C     -0.4899     16.3212      8.2715
H      7.7498     10.4800      0.3253
C      0.5238      8.7895     -0.4817
C      1.7451     15.2113      7.8809
H     -1.7357      6.7096     -1.8722
C     -0.5965      6.4461      1.5999
H      5.7546      7.2333     11.7289
H      9.3956      3.6832      5.6580
H      6.0119      9.1185     -0.2229
C     -2.7997      7.3871     -0.2925
O      2.8522     10.0607      0.7760
C      6.9960      8.3879      7.8545
C      4.1977      8.6160      7.4284
C      3.3725     14.2679      9.5229
C      2.8104      1.1083      4.6219
H     -2.7912     11.4014      1.0280
H      6.2098     12.9229      6.8125
H      3.2445     20.4203      8.8572
C      4.1497      3.3696      3.3321
C     -2.3974      8.2765      0.8408
C     -1.6837      6.7758     -0.9124
C      5.3554     15.1011      5.2582
H      4.1171     12.4506      5.1730
C      1.8652     12.8676      8.4352
C      4.1711     11.2572      7.5654
C     11.1304      5.1414      4.1892
C      3.8413      9.9309      6.8018
C      2.7631      3.6617      2.5749
C      5.4695      7.0994      9.1974
H      1.2262     12.1842      8.8398
H      2.3710      7.1237     -0.0099
H      7.3613      5.7357      4.6457
H      1.8839      3.1689      0.0720
O      5.7956      6.6491      6.2167
C      0.8829     21.3500      4.4019
H      4.3364     11.6941      6.5895
C     10.2680      8.6244      3.6883
C     10.6979      7.3857      3.1382
H      8.1977      9.9316      8.7984
H      8.5004      3.4189      2.6618
C     10.8255      8.8246      7.7448
H      2.2907      3.3553      4.9657
H      3.3566      4.5988     13.7164
H      0.0269     17.1044      8.6971
C      3.4424      1.3139      1.8571
C     -0.2933     21.4781      2.1306
O      4.0199      4.2057     13.1995
O      7.2268      3.7817     11.0170
C     -0.0802      3.0893      1.5597
C      0.3996     16.8094      3.9003
C      6.4855     10.8792      7.5131
H      3.0107      9.9989      6.1153
H     -0.7212     22.9560      4.2251
H     -0.8176      7.9928     -2.2064
O      0.7515     23.0914      5.7070
C      5.3780     10.9865      8.5455
C     13.7454      7.3136      6.6231
C      1.4018      7.3830      0.9183
H      2.4758      8.2025      2.3587
C      0.7135     20.7169      3.0246
H      8.3540     12.2603      9.8936
C      2.3588     -0.1112      3.8389
C      0.4720     15.7275      7.6079
C     10.1409     10.7960      6.9066
C     10.4352      3.4913      6.3341
C      4.7851     12.0962      4.3293
C      2.5406     16.7319      9.7228
C      0.7871      2.1213      1.9028
C     -1.5466      7.6712      1.8207
C      3.3380     12.1542      8.4709
N      1.8898     -1.1601      4.4657
C      3.9419      1.2575      0.4159
O      4.0193      6.1496      2.1088
C      9.4182      6.1682     13.3634
H      5.9618      9.7768      6.1435
C     10.1725      4.6576      3.1913
C     10.2017      8.5148      8.9831
H      7.4903      3.9164      7.6812
H      7.8115      2.9131     11.1992
H      7.9961      9.6209      6.2864
C     -2.9089      9.5184      0.9433
H      4.8033      6.7083      8.2599
H      2.3438     19.0039      9.1887
H     -0.4134     22.4744      2.7540
H      0.5832      9.6808     -2.2520
H      4.4874      0.4234      0.0112
H     -0.4933     15.8305      9.2664
C      1.9590      7.3503      2.2989
H      2.9538      1.4827     -0.2403
C      1.2300      9.6158     -1.2518
H      7.9908      5.7722     10.5702
H      0.9289     -1.5721      4.2836
C      4.4604      8.1671      4.2294
C      7.8573      7.2395      2.7346
C      7.4878      9.7296      1.0235
C      5.9490      8.0854      1.5137
C      4.4753      6.1669      6.2371
C      2.0170      4.9631      2.5345
C      6.1531      5.3562     12.4949
C      5.7217      7.1767      3.8431
C      8.1835      6.2527     13.4936
H      1.9240     10.3537     -0.6046
C      4.2827      5.0526      7.5221
C      1.5573      4.9872      0.9415
C      6.4629      7.0089      5.1455
H      2.1727      2.0854      4.2885
H     10.3661      5.1729      2.4208
C      7.0542      5.2702     13.5832
H     -0.6806     16.8743      4.1475
O      7.6994      7.1762      5.3955
H      8.8699      9.0102     11.8590
H      6.8498     10.3377      1.7886
H      0.8369     15.7374      3.2438
H      0.1811      3.9498     -0.2278
H      4.6243      5.3591      4.0691
C     -0.3285      7.7660     -1.2893
H      6.4282      4.4413      6.9888
C      2.8505      6.2191      2.8187
C     10.9882      4.8183      5.7483
C     13.6690      7.2438      5.2109
H      5.7454      9.2263      9.2018
H      3.7236      1.5840      4.6332
C      1.4017     18.7907      4.7825
H      1.4845     12.9341      7.3583
H      1.7394     -0.4519      2.1720
H      0.4581     10.7834      3.0251
H     10.9393      7.7343      9.2370
C      8.0998      7.3245      8.0757
C      4.0474     13.5776      8.2492
C      6.4576      7.3004      2.5433
C      9.7920     10.1848      5.5352
C     -0.1925     19.4067      3.0334
C     11.6960      6.4064      4.0741
H      9.8749     11.4898      8.7616
H      1.7722      4.6006     -1.1088
H      4.6437      5.3762     11.4064
H     10.3865      2.9286      7.2547
C      1.9465     14.1979      8.9463
H     11.3351     10.8260      6.7311
C      0.7774     18.1821      3.4336
C      5.2415      3.2251      2.3814
H      1.2577     18.0719      8.1411
H      5.1935      7.9517      7.4103
C      7.0645      3.7625      9.6541
H      6.2324     11.8254      6.6557
C      2.3848     19.9980      8.6224
C     11.5204      5.9911      6.3341
C      2.5534      0.1920      2.4466
C      1.1644     17.8973      5.9196
C      2.1421     19.7246      7.1576
C      1.2741      4.0296     -0.2010
H     -1.3883      5.7132      1.4368
H      4.3013      1.2009      2.6082
H     10.1202      9.5235      9.7096
H      4.5077      2.4164      0.2292
H      8.8181      7.2102      7.3236
H      8.7903      2.9661      8.8130
H     10.1708     10.7959      4.8150
H      6.4468     13.6791      3.8981
C     -0.1207     22.4107      4.8790
C      8.8803      7.9610      9.2438
H      4.7488      6.0904     12.9251
H      9.1689      8.7776      3.7309
C      7.9756     11.0265      8.3013
H      9.1655      4.1687      3.3963
H      8.7392      9.7912      5.2973
C     13.0049      7.7188      7.5995
C      0.7696     16.7542      5.3460
O      7.6575      5.0710      3.9262
C     -1.0564     21.4927      5.5421
C      5.9781     13.9026      7.2046
C      5.1599     14.6327      6.6539
C      2.7190      0.9945      6.1198
H      7.0338     14.0830      7.3131
H      4.6740     16.0167      9.2430
H      7.5480     11.0411     10.3936
H      1.7780     22.8680      5.3535
H      5.7488     11.8938      4.7703
H     13.3091      8.3427      8.4308
C      1.9312     18.1036      7.2168
H     -0.2094      4.1137      1.3676
C      3.8802      5.4685      4.8181
C      3.5624     15.8154      9.0888
H      8.3135      9.6858      1.7532
H      0.4459      6.1085     -0.4490
C      8.3311      7.7038     10.5279
H      2.2192     16.9770     10.9344
H     -1.2478      6.0067     -0.4029
C      4.3665      2.9747      4.7373
C      4.7850      9.6946      5.4252
C      5.9887     12.1418      9.4571
C      6.8668      9.6428      6.8787
C      5.5582      4.3403      7.7787
C      5.4388     13.5231      8.6667
H     -1.7018     16.5076      7.6521
H     -3.4635      9.8837      0.0709
H      5.2040     12.3177     10.2695
H      9.5610      4.9645     13.3525
C      1.7223      9.8904      1.3128
H      2.9597     17.6349      9.3052
H     10.4338      9.3311      2.9328
