268

C     19.7072      8.4530     13.6934
N     -1.5803     10.4982      1.8482
C      3.9472      1.5393      7.2336
C      2.1800      2.5785      1.5468
C      7.2747      4.9526      2.1769
H     -3.2941      6.9814      2.5496
C      7.1819      3.4023      2.5164
C      3.1224      3.7749      5.3519
C     16.0471      7.0907     19.4036
C      5.9241      1.8881      3.7537
C     -7.2301      8.5755      9.6592
C     13.8759      8.9077     13.5583
N     -0.0736      2.7119      6.3974
C      0.2478      6.2691      0.5764
O     -1.3629      2.8694      1.3780
C      2.9902      3.9466      6.9380
H     -0.4956      5.8024     -0.1903
C     15.4844      6.2297     17.3696
C     16.2641     10.1923     16.5149
H    -11.8744     14.1988      9.9875
H     -3.4686      3.4527      5.1649
H     17.8932      6.1539     15.7612
C     17.1294      8.9542     16.3177
H     -6.9361      9.4824     10.4235
H     13.0085      6.7204     11.1942
H     -1.8637      4.8283      6.4585
H      6.9173      2.6680      8.1437
C      2.9461      2.7218      7.6511
H      6.8260      1.4728      4.0160
O     14.2593     10.8757     14.7523
C     -5.0639     12.6415      8.2011
C      6.3328      5.7990     10.0451
H      2.9519      6.3874      8.8640
C      6.1854      3.2953      3.3427
H      5.4831      2.8922      7.0605
H     -8.2901     10.7593      9.5542
C     17.0667     10.9297     17.7272
C     -2.9211      8.5768      5.0342
O      1.9257      8.5646      4.9996
C     -1.6728      8.1376      6.9328
C      8.5518      8.5204     11.8356
C     20.5942      7.7830     12.7159
C      6.3489      7.3425     -0.9761
H      4.9309      4.1533      1.8645
H     17.7035      9.7370     14.6032
H      1.9132     -1.1571      3.3564
H     -4.8187      6.1709      7.3162
C      7.5372      2.8468      9.0735
C      7.0062      6.7039     10.7096
C      7.6180      5.6131      3.3220
H      8.3250      7.1917      2.3781
C     -1.1656      6.7141      5.1518
H     16.6233      8.2431     21.1883
H      2.7528     -0.7193      2.0672
H     15.2338      7.3951     12.8412
C     -3.1315     11.6290      7.0828
C      6.0761      4.6885      9.3703
O      5.4286      2.9644     10.6349
C     15.8810      7.7107     18.1291
C      4.8216      5.3529     -0.5347
C     17.6061      8.9113     15.1170
H     -3.4007      7.7354      5.5393
H      8.2260      7.2864      4.2082
H     -9.6753     14.4222     10.8761
H     -6.4775     12.6345      9.8922
H      1.9876     -1.2859      5.0853
H     18.4899     12.2415     16.5342
C      0.1971      3.5480      8.7383
H     21.2006     10.2018     14.1157
C     13.3714      8.4247     12.1342
C      1.5833      1.8433      7.7609
H     -1.9485      7.8539      9.3266
C     -0.8103      6.3234      1.5127
C      9.8957      7.9147     12.3230
O     15.6884     10.2719     12.9277
C     -6.4107      8.5804      8.5756
C     16.9264      8.1515     20.1188
C     -9.8776     14.6182      9.6382
C      2.6980      1.4050      5.0161
H     -1.6466     11.5998      1.9714
H     -2.9263     10.7717      0.3137
H     -7.1997     12.1880      7.0507
H     -9.2473     18.1352     10.2789
C      3.6616      3.2286      3.2758
H     -4.7029      9.5727      6.2354
C     -2.3650      8.4872      0.7073
C     10.9238      7.4554     11.4797
H     -1.5891     10.9364      5.3721
C      5.1333      2.1091      4.9987
H      4.1268      0.0860      5.7972
H     -1.2917      2.1781      0.5754
C    -10.6125     12.3928      9.0675
C     -8.3624     11.1144      8.5681
C     -2.2268      5.2222      3.2769
C     16.6921      9.5542     19.5619
C      2.3819      3.7228      2.8098
C     -8.1964      7.4685      9.8845
H     15.9480      8.3989     13.7656
H      8.8619      4.6367      5.0585
H      2.2065      5.4638     -0.6808
O      5.4631      6.4088      6.7949
C      0.6200      7.9330      4.3064
H     -8.8324     10.4927      7.7790
C     -2.8681      8.7413      3.4773
C     -2.2480      7.5364      2.8936
H     -6.0367      8.0315      7.7276
C     -2.8542      8.4226      7.5660
H      2.0953      3.8622      5.5205
H     13.8322      9.2961     10.0687
H      4.2573      3.9190      0.8483
H     -0.7680      4.3198      8.6961
C      3.2074      1.5056      1.7726
C     -0.0706      8.3556      1.7017
O      4.5475      4.0548     -0.1334
O      7.4579      3.8513     11.1591
C     -0.0798      3.2109      1.9103
C     -0.2645      3.8482      4.0182
C     -5.7661     10.5342      7.4915
H     -3.8964      8.4138      6.8922
H     -0.4948      9.7027      3.8595
H      0.6633      6.9080     -0.1840
O      0.2467      9.6214      5.8801
C     -6.9885     11.5394      8.1413
C      0.5411      7.1183      6.7662
C     15.2076      7.7500     13.8984
H     15.5559      8.0278     16.0585
C      0.5746      7.5644      2.7782
H     -4.7928     13.5948      8.8049
C      2.6103      0.3793      3.8353
C      0.2986      2.4719      7.7614
C     -2.5354     10.8070      6.2934
C     -2.5827      3.2167      4.7688
C     17.9780     11.9286     17.4938
C     -9.9171     17.2336     10.3420
C      0.8532      2.3392      1.6166
C     -1.3483      7.7535      1.5555
C     -9.2130     12.2743      8.8839
N      2.2367     -0.8680      4.2335
C      4.2674      1.6018      0.7733
O     16.9677      6.3692     15.3566
C      9.5183      6.4657     -0.0452
H     18.5553      9.4781     18.8838
H     -0.4867      1.6954      8.2326
C     -2.9526      4.7755      2.1965
C     -2.9271      8.1213      8.9640
H      7.9721      2.0908      9.9853
H      2.1051      1.0858      6.9114
H      7.0989      4.7198     11.5176
H     -5.2459     10.1106      9.5564
C     -2.3371      9.8668      0.8607
H     -7.7317      6.8922      8.9599
H      2.1293      7.8999      8.7045
H     -0.0564      9.2506      2.3645
H     14.3171     10.2585     11.8800
H      4.5707      0.5434      0.6540
H      1.3453      3.8315      8.7435
C     14.8797      7.4522     15.3364
H      4.3631      2.4281     -0.1740
C     14.0419      9.2457     11.2111
H      5.4381      2.6027     11.5473
H     15.2907      9.8774     16.9009
C      4.2740      7.9748      4.5511
C      7.6970      7.0621      3.1581
C     20.9169      9.2185     14.5164
C     18.7305      7.9873     14.7957
C      4.1334      5.9362      6.3090
C      1.7427      5.1194      2.4601
C      6.0943      6.0704     -0.0307
C      5.6650      7.2352      4.3999
C      8.2127      6.5322      0.3647
C      4.3812      4.6426      7.1441
C      1.3851      5.5173      1.0035
H     -2.5514      6.0742      5.7471
C      6.3061      6.5747      5.7120
H     -2.4405      2.3530      4.1957
H     -3.7060      5.4233      1.6454
C      7.0549      5.6118      0.8157
H      0.0238      2.9938      3.3062
O      7.3190      7.5070      6.0701
H      8.6932      9.3854     11.3182
H     20.0069      9.3098     15.3529
H      1.9593      3.2214      3.8043
H     -1.4947      9.9185      2.8012
H      3.5339      4.8494      1.1200
H      4.4910      5.2446      4.1187
C     12.2590      7.6536     11.5385
H      6.4219      5.3423      5.4293
C     15.7419      6.3977     15.9898
C     -1.7140      4.3956      4.4399
C      0.3660      6.8874      5.1987
H     17.9531      8.4153     20.2857
H      1.5413      1.7788      4.9093
C      1.2413      5.7703      4.8066
H    -11.2409     11.4955      8.7870
H      1.3592      0.4576      2.4729
H     16.2313     10.4027     15.3732
H     -0.5596      7.9715      8.5413
C     -4.5279      6.2044      8.3795
C     -8.6880     13.5789      8.5098
C      6.3169      7.5391      3.1280
C     -3.5775      9.8514      5.5925
C     -0.2374      6.2775      2.9040
C     -1.5302      6.4915      3.5733
H      4.9714      5.4654     -1.5369
H     -2.3410      2.6628      5.5826
C    -11.1593     13.8886      9.1643
C      0.4868      5.0861      3.4748
C      4.8727      4.2093      2.9834
H      1.4009      4.8989      8.1594
H     -4.6696      9.1360      8.7382
C      6.8147      3.5940     10.0067
H     -2.8666     12.5775      7.4122
H     -5.5071     10.2201      6.4149
C      2.0856      6.7469      8.5127
C     -1.7976      5.4457      5.5628
C      2.5588      0.2553      2.3472
C      0.8479      4.7181      5.9809
C      1.9156      6.4867      7.1234
C      2.4243      5.0817      0.3273
H     -1.4497      5.4477      1.2335
H      3.8943      1.8790      2.6978
H      5.2155      2.1049      1.2954
H     -4.1918      5.3562      8.9116
H      8.0979      3.5028      8.7215
H      4.8596      1.3608      3.3275
C     -0.4924      9.0159      4.7943
C     -4.0129      7.4575      9.1822
H      3.9709      5.9257     -0.3024
H     -3.8639      8.9957      2.7755
C     -4.7602     11.4736      7.6781
H     -3.3321      3.7955      2.5664
H     -3.3183     10.5530      4.6220
H     -6.8958     14.6167      9.0640
C     -0.3304      7.9412      7.4690
C      0.1942      3.5724      5.4511
O      8.4164      5.3516      4.5130
C     -1.4872      8.2187      5.3699
C     -6.8564     13.8563      6.7637
C      5.1252      1.9384      6.3730
C      3.3272      0.5978      6.1250
H      7.9824      7.7729      5.5079
H     -5.8152     14.3730      6.6486
H     -8.3290     16.1411      9.0194
H      0.0820     10.5528      5.4706
H     18.9132     12.2191     18.1967
C      1.9219      4.8112      7.2597
H     -0.0132      4.3473      1.8277
C      3.6648      5.2727      5.1028
C     -9.6551     16.0158      9.2383
H     21.4842      8.3954     14.4344
C      7.9956      7.5313     10.3766
H    -10.8610     17.9503     10.7392
H     10.5613      6.5282     11.0458
H     -6.8190     13.0854      6.1067
C      3.8344      2.7124      4.5967
C     17.6842      9.9674     18.6937
C     -6.3467     12.6087      8.6409
C     -5.4725      9.6329      8.5698
C      5.0227      4.6485      8.4568
C     -7.1972     13.8155      8.3971
H      0.0383      2.8321      9.6156
H      2.4857      3.1010      0.5500
H     18.9783      9.2123     13.1097
H     10.1542      5.5460     -0.2728
H     -1.0641      2.1752      6.3306
C     14.5986     10.1101     13.8164
H     -9.4019     16.8053     11.3530
H     -2.4196      9.6964      3.3416
