266

C     19.8231      8.3664     13.5972
N     -2.5708     10.4590      1.1598
C      3.7117      1.4964      6.9396
C      2.5476      2.4551      1.9549
C      8.0123      4.7308      2.3179
H     -2.8872      7.0650      2.0747
C      7.9165      3.5170      2.9517
C      3.4504      3.9654      5.1217
C     16.3252      7.3955     19.3548
C      6.1237      1.7208      3.9026
C     -7.5448      8.3309      9.6545
C     13.6913      9.0087     13.7914
N     -0.0297      2.8830      5.8025
C      0.3763      5.8196      0.3584
O     -1.2538      2.3469      1.4392
C      3.2961      4.0190      6.5462
H      0.4816      5.7552     -0.8777
C     15.7073      6.3033     17.2264
C     16.8058     10.1661     16.6939
H    -12.0145     14.5911      9.7040
H     -3.1482      3.1243      4.5930
H     16.6646      6.6422     14.0425
C     17.0701      8.8676     16.3163
H     -8.6521      6.5006     10.1793
H     -7.4594      8.7152     10.6111
H     -1.6330      5.9656      6.9687
H      7.8564      2.9955      7.8108
C      2.8455      2.7360      7.3015
H      7.2670      1.4772      4.4490
O     14.3525     10.3823     15.4734
C     -4.8446     12.9464      8.2738
C      6.1988      5.8955      9.7965
H      2.3194     -0.2643      6.5923
H      4.1072      5.3846      8.4139
C      6.7185      3.0522      3.4011
H      6.0353      3.4550      7.2245
H     -9.2009     11.3907      9.7518
H      3.2335      6.9986      8.9307
C     17.6102     10.9023     17.5147
C     -2.7594      8.7908      4.8549
O      1.9354      8.7600      4.9552
C     -1.3518      8.3908      7.1324
C      8.6449      7.9218     11.7574
C     20.7191      7.2783     12.8094
C      6.5938      6.5455     -0.7191
H      5.7710      4.7741      2.3255
H     17.1766      9.2670     14.3082
H      2.2834     -1.0085      5.6076
H     -4.3886      5.2140      8.3309
H     15.4891     10.7011     12.6267
C      7.9882      3.0102      8.9085
H      0.8280      0.8931      1.5762
C      7.1204      6.2526     10.7113
C      7.9568      5.7988      3.2818
H      8.1059      7.2689      2.0137
C     -1.1479      7.0567      5.0101
H     16.3344      9.1594     21.1572
H      3.0327     -1.1000      2.4319
H     14.2407      7.0716     13.4145
C     -3.3301     11.4436      7.2367
C      6.3811      4.7731      9.0167
C     15.9171      7.6233     18.0658
C      4.9077      4.9518     -0.1323
C     17.5820      8.6128     15.0539
H     -3.3600      7.9860      4.9013
H      7.8861      8.2689      3.5172
H     -9.1906     14.8204     10.2635
H     17.9381     13.0757     17.0618
C     -0.3147      3.7613      8.2434
H     21.5188      9.4510     14.4805
C     13.2352      8.9154     12.2537
C      1.4799      2.0373      7.4736
H     10.9410      7.9068     10.5741
C     -0.5442      6.3812      1.2558
H      5.6025      6.8209     -0.8412
C     10.0966      7.4938     12.2489
O     15.0896     11.1412     13.5339
C     -6.5295      8.4764      8.7876
C     16.7551      8.5727     20.1622
C     -9.4151     14.7775      9.2517
C      2.5963      1.1253      4.9287
H     -1.6376     10.5147      1.5240
H     -7.3993     12.1045      6.8920
H    -11.0976     17.1705     10.3564
C      4.2261      3.4519      3.0627
H     -3.5534      8.0178      7.1291
C     -2.0237      8.4786      0.3370
C     11.2030      7.1410     11.2443
H     -1.7200     10.7590      6.1267
C      5.1594      2.1135      4.9027
C    -10.7421     12.7824      9.3707
C     -8.5813     11.3244      8.7643
C     -2.3754      5.3655      3.8481
C     16.9189      9.6645     19.0511
C      2.8808      3.6118      2.4342
C     -7.8520      6.7480      9.5790
H     15.5892      8.4454     13.9574
H     -3.2719      6.0181      3.9103
H      1.3123      3.5133     -0.6013
O      5.9502      6.4574      6.6870
C      0.7339      8.2695      4.4506
H     -8.8251     10.8447      7.8726
C     -2.3876      8.8657      3.3991
C     -1.9909      7.6052      2.6787
H     -6.8775      8.0761      7.6284
H      8.3360      3.7477      3.9400
C     -2.7871      8.4357      7.7788
H      2.4568      3.7366      5.2457
H     13.7354      9.5488     10.3634
H      5.4232      3.7751      1.2439
H      0.3617      4.0079      8.8500
C      3.4822      1.2838      2.0229
C      0.0386      8.6432      2.0629
O      4.5238      4.0240      0.5597
O      7.4594      3.9798     10.9716
C     -0.0656      2.6817      1.6163
C      0.1295      4.0527      3.7732
C     -5.9489     10.7351      7.7094
H     -3.2364      9.4136      7.4491
H     16.0332     10.1819     18.5283
H     -0.6495     10.2095      4.5806
H     12.9967      7.7819     10.5792
O      0.1708      9.9876      6.2017
C     -7.0203     11.8109      8.1445
C      0.6997      7.0066      6.6831
C     14.7034      7.8268     13.9709
H     15.6471      8.4743     15.8040
C      0.8559      7.6128      2.8988
H     -4.3034     13.8135      8.2676
C      2.6022      0.0183      4.1736
C      0.0553      2.6487      7.2891
C     -2.7006     10.5542      6.3904
C     -2.5208      3.5495      5.4965
C     18.0839     12.1685     17.6139
C    -10.1430     17.3043      9.8484
C      1.1796      1.8550      1.6028
C     -1.2280      7.9505      1.5553
C     -9.4500     12.5758      8.8066
N      1.9743     -1.0478      4.5922
C      3.5100      0.6990      0.6232
O     16.9582      6.1628     14.9084
C      9.8023      6.1172      0.0622
H     19.0338     10.9814     19.0613
C     -2.2781      4.4336      2.6699
C     -3.1478      8.1458      9.2548
H      8.2647      1.9722      9.3057
H      1.7041      1.1669      6.6374
H      6.6386      4.3636     11.0276
H     -5.2460      9.8464      9.3041
C     -2.7861      9.6028      0.2246
H     -8.4423      6.6747      8.5498
H      1.5536      7.9210      8.8314
H     -0.1880      9.5216      2.7169
H     14.0681     10.7325     11.6622
H      4.2137     -0.1587      0.8941
H     -1.0938      3.2709      8.7867
C     15.1043      7.6320     15.3131
H      2.7680      0.6164     -0.1793
C     13.5522      9.8648     11.2974
H      2.4519     -1.7971      4.1227
C      4.5215      7.9659      4.4342
C      7.8811      7.1831      3.0652
C     20.5604      9.6570     14.0172
C     18.8373      8.0043     14.9337
C      4.3233      6.1744      6.2357
C      1.8653      4.8850      2.3301
C      6.3473      5.3914      0.0802
C      5.7016      7.0844      4.3414
C      8.4487      6.3385      0.6211
C      4.1223      5.0825      7.3718
C      1.2462      4.9701      0.8767
H     -2.7883      6.8544      6.2165
C      6.6549      6.9955      5.7259
H     -0.9321      2.6127      5.3904
H     -2.3192      4.2955      1.6999
H      1.3698      1.7736      0.5264
C      7.4779      5.1899      0.9000
O      7.8160      7.3779      6.1654
H      8.2675      8.9941     11.2920
H     20.7030     10.3583     12.9558
H      0.7224      3.0173      3.4122
H     -2.9421     10.8593      2.2026
H      2.2657      4.4917     -1.1715
H      4.5672      5.9726      4.0993
C     12.5076      7.7959     11.6744
C     15.8114      6.4892     15.7400
H      1.7511      6.2477      9.4065
C     -2.4402      4.9013      5.2529
C      0.2878      6.9757      5.2277
H     18.1033      8.6979     20.4106
H      2.1833      2.1053      5.0323
C      1.2465      5.8668      4.5375
H    -11.2875     11.9397      9.0345
H      1.8004     -0.2085      2.3912
H     16.4595     10.7002     15.8724
H      0.0466      7.6465      8.7062
C     -4.4642      6.2892      8.2792
C     -8.7955     13.8882      8.4488
C      6.3649      7.3625      3.0186
C     -3.4519      9.8164      5.4664
C     -0.0467      6.2992      2.7118
C     -1.3836      6.6417      3.6340
H      2.6115      3.0649      0.0063
H     -2.5494      3.0619      6.5888
C    -11.2682     14.1306      9.0126
H     -0.7663      9.2320      7.4645
C      0.7693      5.2660      3.2352
C      5.5290      3.7970      2.8815
H      1.4926      4.8524      7.6055
H     -4.6041      9.0603      8.2137
C      7.3215      3.8345      9.6109
H     -2.7562     12.4593      7.1945
H     -5.5304     10.2447      6.5470
C      2.1534      6.8973      8.6010
C     -2.0330      6.0766      5.9944
C      2.7966      0.1135      2.7373
C      1.1983      4.9654      5.5412
C      2.1063      6.6846      7.1952
C      2.1664      4.1604     -0.1240
H      4.4073      0.9153      2.5006
H     -2.7040      8.7294     10.0130
H      4.1632      1.3396      0.0551
H     -5.5074      6.4907      7.9522
H      9.2056      3.5130      9.1007
H      6.0302      1.3183      2.8245
C     -0.4494      9.2079      5.0317
C     -3.8953      7.0758      9.4423
H      4.2133      5.9133     -0.1448
H     -3.2003      9.4859      2.8236
C     -4.5724     11.5889      7.9246
H     -2.7061      3.3703      2.7948
H     -4.4162      9.3685      5.8088
C     -0.2192      7.4859      7.6807
C      0.3463      4.0668      5.2131
O      7.9528      5.4820      4.5965
C     -1.4750      8.4338      5.5621
C     -6.8946     14.3404      7.2899
C      5.1142      1.9427      6.4701
C      3.0315      0.5829      6.2652
H     -3.5853      6.5493      7.7225
H     -5.9356     14.6326      6.7629
H     -8.4501     16.4419      8.5405
H     -5.7955     12.6523      9.8202
H      0.3467      9.0541      6.6726
H     19.2035     11.8631     17.5947
C      1.9773      5.1140      6.6436
C      4.0011      5.4182      4.8981
C     -9.4992     16.2014      8.8685
H     20.3564     10.2030     14.8408
C      8.3435      7.0608     10.6356
H     -9.3623     17.3808     10.6045
H     10.5723      4.7444      8.4154
H     11.4714      6.0913     11.4165
C      4.1316      2.8193      4.3154
C     18.0327     10.2852     18.8337
C     -6.2751     12.9302      8.7691
C     -5.6090      9.4392      8.3896
C      5.6063      4.2253      7.9286
C     -7.3540     14.0822      8.5768
H     -0.5790      4.5268      7.7181
H     -3.2926      9.7626     -0.6736
H     10.4579      5.4788     -0.4583
O     10.0721      3.7952      8.7734
C     14.3646     10.2979     14.2501
H    -10.1214     18.3228      9.6417
H     -1.5410      9.4133      3.3440
266

C     19.8889      8.3417     13.7973
N     -2.4400     10.5386      1.1826
C      3.7762      1.7323      7.1361
C      2.5001      2.4181      2.0372
C      7.8770      4.9774      2.2438
H     -2.9310      7.0821      2.6053
C      7.9128      3.5759      3.0458
C      3.4579      3.8268      5.1552
C     16.3217      7.3185     19.4142
C      6.2628      1.6924      3.8926
C     -7.4559      8.1764      9.7664
C     13.6221      8.9906     13.7981
N     -0.1220      2.8811      5.8654
C      0.3151      5.9876      0.4250
O     -1.1330      2.3589      1.3607
C      3.2294      4.0133      6.5567
H     -0.0871      5.8595     -0.5879
C     15.8060      6.2808     17.1843
C     16.7294     10.3719     16.5546
H    -11.6888     14.4956      9.8302
H     -3.2515      3.0889      4.6394
H     17.0444      6.8549     14.1039
C     17.0799      8.9249     16.2693
H     -8.3315      6.3488     10.6174
H     -7.5891      8.7037     10.6158
H     -1.5919      5.8570      6.9448
H      7.7231      3.1396      7.7519
C      2.8417      2.8044      7.4115
H      6.9232      0.5402      3.9687
O     14.3706     10.4892     15.4927
C     -4.8919     13.0062      8.2422
C      6.2324      5.7927      9.6437
H      2.6144      0.1497      7.1122
H      3.7162      5.5834      8.1303
C      6.5759      2.9891      3.2046
H      5.5180      3.2094      7.5259
H     -8.4137     10.3604      9.6417
H      2.8928      7.1079      9.2446
C     17.6180     11.0457     17.4295
C     -2.7308      8.6353      4.8627
O      1.9838      8.6768      4.9412
C     -1.2814      8.4397      7.1532
C      8.6462      7.9099     11.8141
C     20.5467      7.4830     12.8318
C      6.4402      6.6401     -0.6221
H      5.5972      4.6166      2.3167
H     17.6535      9.3438     14.1764
H      2.5372     -1.1935      5.6106
H     -3.7426      5.1326      8.7834
H     15.0416     10.8038     12.5337
C      8.0152      2.9026      8.8786
H      1.0265      0.9788      1.4932
C      7.1511      6.4831     10.6828
C      8.0595      5.9159      3.2093
H      8.5660      7.7113      2.3490
C     -0.9731      6.9615      4.9727
H     16.6562      8.9792     21.2590
H      3.2157     -0.7987      2.1736
H     14.5886      6.8173     13.5541
C     -3.2416     11.3775      7.4410
C      6.2801      4.6869      8.7900
C     16.0590      7.6972     17.8727
C      4.8324      5.2172     -0.2211
C     17.5176      8.6600     14.9149
H     -3.2910      7.7625      5.0738
H      8.6649      7.8014      3.9284
H     -9.0669     14.8000     10.2460
H     18.1361     12.5894     16.2051
C     -0.4362      3.6442      8.1534
H     21.7918      9.1968     14.0529
C     13.0273      9.1278     12.2967
C      1.5937      1.8626      7.6575
H     11.1234      7.4279     10.1959
C     -0.6312      6.5379      1.3909
H      5.4024      7.1911     -0.4866
C     10.1945      7.3136     12.4653
O     15.1363     11.1956     13.4694
C     -6.5130      8.4951      8.8026
C     16.6914      8.5609     20.1246
C     -9.6805     14.8334      9.3564
C      2.9371      1.1478      4.9559
H     -1.4446     10.3303      1.2108
H     -7.2465     12.3915      7.3439
H    -11.0125     16.8446     10.0026
C      4.2222      3.5107      3.1366
H     -3.4735      7.7387      7.2888
C     -2.2272      8.4027      0.3453
C     11.1600      7.2180     11.3639
H     -1.9551     11.1066      5.9170
C      5.1425      2.0575      5.0938
C    -10.7725     12.7710      9.2386
C     -8.5734     11.3374      8.7266
C     -2.3017      5.3772      3.6501
C     17.0470      9.6439     19.2795
C      2.7855      3.7554      2.5654
C     -7.8067      6.8579      9.7052
H     15.7168      7.8576     13.5673
H     -3.4952      5.7748      3.5756
H      1.4465      3.2663     -0.2522
O      5.7506      6.4866      6.7525
C      0.7470      8.1645      4.5327
H     -9.1709     10.6446      7.9406
C     -2.3952      8.8718      3.4153
C     -2.1255      7.7257      2.6239
H     -6.5505      7.6508      8.0837
H      8.7785      3.4327      3.8979
C     -2.7978      8.3705      7.8039
H      2.3633      4.0996      4.4082
H     13.6753      9.5222     10.0914
H      4.9244      3.5835      1.2265
H      0.7260      4.0026      8.5370
C      3.3414      1.1590      1.9438
C     -0.1224      8.6161      2.2136
O      4.4782      4.0384      0.5882
O      7.4755      3.9637     11.0355
C     -0.0480      2.7187      1.5146
C     -0.0103      3.8565      3.7772
C     -5.6986     10.7124      7.7624
H     -3.1696      9.4896      7.6742
H     16.2400      9.5504     18.6251
H     -0.1368      9.7020      4.1613
H     12.9913      8.0610     10.6306
O      0.3335      9.8147      6.0777
C     -7.0892     11.6596      8.0793
C      0.6097      7.0619      6.7587
C     14.7389      7.8534     13.8535
H     15.6197      8.3205     15.6830
C      0.6352      7.6550      3.0826
H     -4.5490     14.0703      8.0429
C      2.6566      0.0007      4.0766
C      0.2704      2.5226      7.4524
C     -2.8877     10.7493      6.2076
C     -2.6982      3.5390      5.5488
C     18.3176     12.2369     17.4740
C     -9.9781     17.4692      9.7442
C      1.1615      1.9475      1.5436
C     -1.2624      8.0750      1.3916
C     -9.5166     12.5204      8.6722
N      2.1766     -1.2269      4.6442
C      3.6709      0.7909      0.6169
O     17.0904      6.2976     15.0424
C      9.7998      6.0984      0.1655
H     18.9310     10.3800     19.2286
C     -2.4008      4.3660      2.6284
C     -3.0586      8.1884      9.1728
H      7.9029      1.9351      9.1691
H      1.1408      1.2068      7.0283
H      7.1267      4.7079     11.6259
H     -5.1198      9.6543      9.5023
C     -2.8616      9.5701      0.1744
H     -8.2581      6.8162      8.5559
H      1.3120      7.5201      8.8462
H     -0.1608      9.4704      3.0482
H     13.9776     10.7745     11.7006
H      4.1418     -0.1994      0.4133
H     -1.1263      3.1773      8.9707
C     14.8993      7.5963     15.3183
H      2.7336      0.5291     -0.0892
C     13.5744      9.9345     11.3012
H      2.5245     -2.1397      3.9722
C      4.3840      7.9674      4.3346
C      7.8834      7.4141      3.0731
C     20.6464      9.6972     14.1039
C     18.7366      7.8739     14.6606
C      4.4521      6.0719      6.2735
C      1.8579      4.9075      2.2901
C      6.1971      5.3925      0.1403
C      5.6911      7.0581      4.2194
C      8.4392      6.2186      0.4992
C      4.2603      5.1022      7.2937
C      1.2022      4.9227      0.9641
H     -2.8718      6.8874      5.8418
C      6.6202      7.0133      5.6153
H     -0.8379      2.3901      5.2584
H     -2.5884      4.8956      1.5884
C      7.5140      5.2370      0.8621
O      7.6991      7.5544      6.0437
H      8.5594      8.8261     11.2253
H     20.9115     10.5311     13.4330
H     -0.1076      3.0548      3.1014
H     -3.3532     10.7525      1.5902
H      2.3216      4.7460     -0.8163
H      4.9910      5.0384      4.2519
C     12.7008      7.8216     11.6178
C     15.8277      6.2587     15.5679
H      1.3875      5.6869      8.7119
C     -2.4316      4.8272      5.2878
C      0.5157      7.0354      5.2600
H     17.6818      8.3164     20.0998
H      1.9354      1.8221      5.0532
C      1.4848      6.0701      4.4728
H    -11.5901     12.0010      9.1487
H      1.5961      0.0305      2.3675
H     16.3552     10.6449     15.5286
H     -0.1322      7.5718      8.7272
C     -4.4430      6.2325      8.3645
C     -8.7624     13.8837      8.3494
C      6.4336      7.4001      3.0684
C     -3.5378      9.8317      5.4459
C     -0.1129      6.4455      2.8145
C     -1.2253      6.6190      3.5532
H      3.0962      3.7808      0.4021
H     -2.0939      2.7891      6.2538
C    -11.1076     14.1450      9.1005
H     -1.3432      9.3343      7.6382
C      0.7413      5.2115      3.4711
C      5.5185      3.8121      2.9401
H      1.6702      4.4829      7.5083
H     -4.8714      9.0278      7.9298
C      7.3298      3.8646      9.7268
H     -2.7954     12.2667      7.9179
H     -5.8194     10.3607      6.7560
C      2.0896      6.8300      8.5698
C     -2.1894      6.1097      6.0645
C      2.6637      0.0412      2.6690
C      1.2235      4.8869      5.5383
C      2.1730      6.5917      7.0412
C      2.0816      4.1546     -0.0730
H      4.1941      1.9573      2.2036
H     -2.8023      8.8057     10.0661
H      3.8878      1.7521      0.4896
H     -5.4175      5.8871      8.1013
H      9.1312      3.5324      8.9012
H      5.4041      1.2878      3.3084
C     -0.2130      9.2213      5.0855
C     -3.8211      7.0923      9.4173
H      3.8757      5.8184     -0.3526
H     -3.4078      9.0421      2.9447
C     -4.5120     11.6017      7.8449
H     -2.5972      3.3557      2.8660
H     -4.4489      9.3432      6.2158
C     -0.2783      7.5556      7.5966
C      0.2422      3.9078      5.1703
O      8.0805      5.3425      4.5534
C     -1.5035      8.4539      5.5388
C     -6.9717     14.5423      7.3279
C      4.8917      1.9067      6.3683
C      3.2345      0.5021      6.1287
H     -4.5808      6.3715      7.1810
H     -6.0509     14.2388      7.1100
H     -8.5660     16.5423      8.6780
H     -6.4294     12.5373      9.8640
H      0.1105      9.4449      6.9823
H     19.2940     12.2343     17.8974
C      2.1689      5.1905      6.6130
H     -0.0408      3.9476      1.8945
C      3.9787      5.4812      4.8692
C     -9.7102     16.1182      8.7709
H     19.8341      9.8386     14.8033
C      8.2548      7.1169     10.6231
H     -9.6586     17.1926     10.8122
H     10.7086      4.4801      9.1030
H     11.5690      6.2565     11.0820
C      4.1623      2.7730      4.4358
C     18.0361     10.3706     18.5501
C     -6.2669     12.8245      8.7118
C     -5.5398      9.5303      8.5058
C      5.3852      4.3395      7.8052
C     -7.1612     13.9178      8.5304
H     -1.0148      4.2505      7.5066
H     -3.7539      9.3455     -0.4652
H     10.1512      5.3679     -0.3708
O     10.1318      3.7534      8.5996
C     14.2408     10.1742     14.2940
H    -10.0076     18.4146     10.0225
H     -1.6911      9.8515      3.5259
