266

C     19.8637      8.4877     13.5900
N     -1.6492     10.6347      1.8084
C      3.6654      1.4241      7.0632
C      2.1435      2.5017      2.1367
H    -11.6919     14.6567      9.9593
C      6.7494      5.1071      1.9312
H     -3.2817      7.0239      2.9807
C      7.3280      3.5732      2.2636
C      3.2976      3.8940      5.5156
C     16.3844      7.4020     19.4695
C      5.8405      1.7137      3.8400
C     -7.1665      7.9110      8.8482
C     13.6461      8.4853     13.8285
N      0.1542      2.7605      6.2688
C      0.8106      6.0595      0.6049
O     -1.7321      3.0653      1.8047
C      3.1735      4.2049      6.9094
C     15.8796      6.2965     17.3011
C     17.0339     10.5287     16.0641
H     -1.8869      2.2947      6.7768
H     16.8729      5.2282     14.3743
C     16.9327      8.9433     15.7982
H     -8.4232      7.0588     10.3224
H    -10.5915     17.2527      9.6557
H     -1.2147      6.2633      7.2360
H     -7.2968     14.3481      9.2345
C      3.0248      2.8738      7.7629
H      6.6348      1.2060      4.4025
O     14.1863     10.4497     15.3638
C     -5.4402     12.1152      9.2214
C      6.2668      5.7821      9.7618
H      2.4112     -0.1732      6.4705
H      3.4980      5.2919      8.1693
C      6.1294      2.9634      2.8308
H     -8.9766     11.9980      9.8033
C     17.5110     10.7712     17.3283
C     -2.6999      8.6127      5.4363
O      2.4248      8.7262      4.5179
C     -1.5126      8.1546      7.1627
C      8.7642      7.8076     11.8062
C     20.4591      7.4745     12.5923
C      6.4302      7.0475     -1.1513
H      4.8333      4.2917      1.7790
H     17.8153      9.8736     14.2810
H      2.5925     -1.6497      5.1084
H     -5.5080      6.0540      8.5296
C      7.7746      2.5343      8.3127
H      0.3507      1.2139      1.8775
C      7.1275      6.2451     10.6637
C      7.5093      5.6250      3.0772
H      8.2590      7.0482      1.9544
C     -0.9680      6.8357      5.1718
H     16.3115      8.1985     21.0039
H     16.7318     11.4027     15.6149
H      5.0119      6.7356      0.2618
H      2.4203      5.6758      0.7310
C     -3.4470     11.4807      7.6961
C      6.3891      4.7955      8.7597
C     16.2728      7.6419     17.8752
C      5.1405      4.7160     -0.7936
C     17.7189      8.8940     14.5486
H     -3.8249      8.0608      5.6843
H      8.3927      7.5037      3.7025
H     -9.1936     14.2148     10.4566
H     -7.8402     10.3465      9.3352
H     18.8646     12.2253     17.6370
C     -0.7740      3.5952      8.2510
H     21.8271      9.3788     14.8116
C     13.3479      8.6530     12.4716
C      1.6872      2.2624      8.2376
H     10.3775      7.0439     11.0490
C     -0.6496      6.2164      1.3440
H      5.5551      7.8529     -1.6813
H     -1.8571      2.7173      5.5657
H     19.1804      8.8355     12.7711
C     10.0376      7.2900     12.7592
O     15.8706      9.8603     13.7894
C     -6.1436      7.8643      7.8243
C     16.9018      8.5560     20.2161
C     -9.4721     14.4713      9.4270
C      2.2255      0.9764      4.7094
H     -1.5861     10.0797      2.5591
H     -6.9257     12.3902      6.3792
H     -0.8007      7.3711      8.5754
H      2.4792      6.7333      9.6394
C      3.9934      3.2732      3.4773
C     -2.3170      8.3253      0.7462
C     11.2588      7.0410     11.7304
H      8.7518      2.9870      8.3895
C      5.0598      2.1039      5.0950
H    -11.6279     12.4000      9.9003
H     17.5970     12.5607     16.2152
C    -10.9353     12.5271      8.9930
C     -8.5008     11.3181      7.4709
C     -1.9190      5.0190      4.2896
C     17.0239      9.7775     19.4859
C      2.7940      3.5229      2.6897
C     -7.8690      6.7290      9.5131
H    -11.3575     12.6118      7.9903
H     15.3259      7.2727     13.2469
H      0.3475      3.7036     -0.3287
O      5.8067      6.7930      6.4836
C      0.9537      8.1959      4.5269
H     -8.1734     12.0443      6.5961
C     -2.3399      8.6472      3.8406
C     -2.2037      7.2374      3.0732
H     -4.6296     10.2060      8.9784
H      8.3264      3.6550      2.5209
C     -2.6646      8.4935      7.8585
H      2.2680      3.9580      5.2174
H      3.4679      5.2067     -0.3656
C      2.7601      1.2402      2.0186
C     -0.0894      8.4153      2.0795
O      3.9717      4.4474     -0.1882
O      7.6858      3.7508     10.2595
C     -0.2595      3.2382      2.0032
C      0.4404      3.7832      4.2897
C     -6.0623     10.4653      7.4873
H     15.9788     10.0158     19.0950
H     -0.0788     10.1818      4.4082
H     12.1617      8.3033     10.5315
O      0.6490      9.6657      6.2708
C     -7.1574     10.9247      8.3152
C      0.9155      7.0911      6.7609
C     14.5597      7.2604     13.8437
H     15.6242      8.4182     15.2243
C      0.8529      7.4829      3.0453
H     -5.0443     13.1291      8.7863
C      2.2110     -0.1407      3.9841
C      0.4520      2.6718      7.5548
C     -2.4896     11.1227      6.8115
C     -2.3096      3.4515      6.1765
C     17.8156     12.1611     17.3173
C     -9.6830     17.0782     10.0270
C      0.6718      2.2964      2.0894
C     -1.4107      7.5627      1.8377
C     -9.2446     12.1893      8.6484
N      1.6637     -1.1315      4.8071
C      3.8367      1.6373      0.4634
O     17.0446      6.0038     14.7743
C      9.3481      5.9452      0.5040
H     18.8204      9.9922     17.7355
C     -2.6351      4.2649      3.4002
C     -3.1141      8.4844      9.2107
H      7.4389      2.4464      7.3836
H      1.6742      1.4574      7.0028
H      7.0230      3.2193     10.9130
H     -5.5708      9.1804      6.1405
C     -2.2884      9.6623      0.9004
H     -8.6802      6.4869      8.7664
H      0.8713      6.8659      9.2712
H     -0.0725      9.3745      2.5459
H     13.7597      9.5088     10.7173
H     -1.8794      3.8664      1.6206
H     -0.8255      3.7204      9.3217
C     15.0289      7.4084     15.1835
H      3.1716      2.1836     -0.3248
C     14.2505      9.2114     11.5872
H      7.4664      5.4714     11.3900
H      1.4057     -1.5939      3.9837
C      4.6270      8.2604      4.1690
C      7.8546      6.9958      2.9933
C     20.8529      9.6122     13.9571
C     19.0009      8.1930     14.7597
C      4.4235      6.2189      6.4419
C      2.1058      4.9878      2.5262
C      5.6529      6.1527     -0.2324
C      5.7384      7.2404      4.0817
C      8.0262      6.1711      0.2952
H     15.1647      9.8808     11.8051
C      4.1911      5.0512      7.3781
C      1.6087      4.9683      0.8855
H     -3.4001      9.2003      7.4065
C      6.3280      7.3797      5.4010
H      1.2499      1.5791      4.7728
H     -3.0534      4.8166      2.4002
C      6.7876      5.7692      0.6381
H     -0.5774      3.3216      3.8972
O      7.5092      7.5294      5.4611
H      8.4406      8.9985     11.6238
H     20.9721     10.1269     13.0423
H      1.2388      3.1173      3.9194
H      2.1672      3.6488     -0.9141
H      4.9009      5.4653      4.6357
C     12.6072      7.8157     11.5266
H      6.1692      4.2566      6.8505
C     15.8565      6.2620     15.6686
C     -1.7491      4.7287      5.6153
C      0.6638      6.9919      5.2992
H     -7.6830      8.5461      9.3840
H      2.9822      1.8355      4.5813
C      1.4683      5.7844      4.9480
H      2.1897     -1.1093      2.1769
H     13.3662     10.4966     15.6654
H     -2.2321      7.8996      9.6946
C     -5.0044      6.8706      8.0915
C     -8.8121     13.5298      8.4227
C      6.4307      7.4683      3.0167
C     -2.6669     10.1372      5.3626
C     -0.1701      6.1024      3.0051
C     -1.2514      6.4068      3.9254
H     -3.1096     12.6093      7.9435
H      1.3854      2.4067     -0.2433
H      5.9270      3.9018     -0.6016
H     -3.3385      3.3730      5.9382
C    -10.8850     14.1241      9.2428
H     -1.1934     11.3626      7.0576
C      0.7433      5.0436      3.7759
C      4.9926      3.6650      2.6275
H      1.2102      4.1792      8.2720
H     18.0030      8.1769     20.3152
C      7.1726      3.5718      9.1153
H     -1.2275     11.5291      1.5212
C      1.9283      7.1311      8.7344
C     -1.4901      5.9187      6.2671
C      2.4072      0.0224      2.6296
C      1.2518      4.8638      6.1305
C      2.1758      7.0746      7.2852
C      1.3157      3.7008     -0.0323
H     -1.3118      5.6017      0.8652
H      3.9636      1.6803      2.1084
H     -3.2214      9.6986      9.6099
H      4.4415      2.6551      0.6623
H     -4.5798      6.7807      6.9981
H      7.6302      1.4768      9.1465
H     -2.0030     10.8688      5.0297
H      5.2277      1.1280      3.1504
C      0.0470      9.3937      5.1479
C     -4.2420      7.6946      9.3996
C     -4.7746     11.1641      8.2936
H     -3.2259      3.7515      3.9889
C     -0.1309      7.5967      7.6264
C      0.3518      3.8821      5.6752
O      8.1412      4.7506      3.9295
C     -1.3754      8.3932      5.7360
C     -7.0279     13.3993      6.7461
C      4.8283      1.2197      6.1536
C      2.4848      0.9787      6.2376
H     -6.1286     13.6079      6.6130
H     -8.0547     15.6605      8.9644
H     -4.9917     12.0089     10.2395
H      0.9028     10.4427      6.7181
H     17.1789     12.9529     17.9051
H      0.5482      8.7305      7.8309
C      1.7733      4.8541      7.4755
H     -0.2632      4.2061      2.1734
C      3.9723      5.4808      4.9704
C     -9.1238     15.8784      9.0623
H     20.3040     10.4669     14.3420
H      0.6236      5.9548     -0.4567
C      8.2140      7.2001     10.5018
H     -9.7824     16.7479     11.0220
H     12.0925      6.3001     11.9114
C      3.8549      2.8312      4.7637
C     17.8169      9.6953     18.1274
C     -6.8708     12.1660      9.0699
C     -5.5149      9.0876      7.2582
C      5.4966      4.3078      7.6850
C     -7.1649     13.5043      8.4503
H     -1.3742      4.1114      7.5418
H     -2.6547     10.1485     -0.1090
H     -7.4829     12.0644      9.9859
H      9.5692      5.2101      1.4449
C     14.7510      9.5757     14.2660
H     -9.2640     17.8920      9.8317
H     -1.2867      8.7310      4.1253
