261

C     19.5396      8.6022     13.6209
N     -3.0627     10.3234      2.1089
C      4.0161      1.4657      7.2548
C      2.5284      2.4565      1.9472
C      7.5851      4.8933      1.9487
H     -3.0779      6.1167      2.7313
C      7.6171      3.4865      1.9957
C      3.5289      3.8648      5.3413
C     16.1274      7.2237     19.4761
C      6.4834      2.0972      3.9174
C     -7.2947      8.2937      9.3830
C     13.5005      8.7109     13.9013
N      0.3777      2.2281      6.3281
C      0.7004      6.2944      0.6702
O     -1.0530      2.1130      1.3727
C      3.1265      3.8923      6.9304
H     13.8638      7.5396     11.6391
C     15.5905      6.3947     17.5061
C     17.0969     10.3498     15.7657
H    -11.5129     13.7513     10.0768
H     -3.3311      3.3842      5.0980
H     17.0619      5.7999     15.8209
C     16.4677      8.9783     16.0543
H     -8.3523      7.1910     10.6723
H     -7.8258      8.9208     10.4528
H    -10.3182     17.9121      9.3195
H     -2.5545      5.8662      7.2710
H     -6.4657     14.6646      8.8820
C      3.1624      2.6274      7.5507
H      7.2138      3.0042      4.3911
O     13.8863     10.4520     15.4876
C     -4.8764     12.3946      8.9541
C      6.1846      5.8586      9.6631
H      3.7337     -0.5014      6.1263
H      3.9791      5.5835      8.1923
C      6.5040      2.8981      2.6310
H      5.8490      3.0007      7.6441
H     -8.6009     12.0356      9.8652
H      2.8780      7.6046      9.0598
C     17.6482     10.8045     16.9739
C     -2.8909      8.2349      5.0560
O      2.0710      8.8810      4.9138
C     -1.4443      8.1156      7.1766
C      9.0133      7.9043     11.9207
C     20.5623      7.5949     12.6614
C      6.5372      7.0005     -0.8971
H      5.1957      4.1817      1.6270
H     16.9155      9.4933     14.1396
H      2.7509     -1.2217      5.4488
H     -5.8599      6.8230      8.1789
C      8.0474      2.7772      8.6700
H      1.4586      0.9478      1.8923
C      7.0456      6.3572     10.7718
C      7.9224      5.5641      3.0362
H      7.9954      7.5088      2.1361
C     -1.2121      6.8372      5.3370
H     16.5250      8.9797     20.9658
H     16.6775     10.9204     15.0654
H      2.7004      5.5715      0.9601
C     -3.5398     11.3736      7.1800
C      6.4554      4.6460      8.9319
C     16.0622      7.6939     17.9782
C      4.6784      5.4109     -0.5313
C     17.3900      8.9019     14.7092
H     -9.0711     15.2059     10.6768
H     19.3879     12.4673     17.3686
C     -0.5501      3.4879      8.2306
H     19.7105     10.3104     14.6272
C     12.9635      9.0154     12.6558
C      1.7538      1.8742      7.9960
H     10.9635      7.1586     10.9413
C     -0.7315      6.2317      1.4880
H      5.4885      7.5425     -0.8073
H     18.7199      9.0779     13.0361
C     10.0946      7.1953     12.6733
O     15.3991     10.3115     13.7057
C     -5.7157      8.6570      8.8182
C     17.0547      8.7477     20.1558
C     -9.3630     14.5455      9.7855
C      2.4969      0.9956      5.0167
H     -4.0562     10.0621      2.0281
H     -3.2345     11.3032      1.6389
H     -6.9728     12.7191      6.9437
H      2.6309      6.0555      9.2577
C      4.0246      3.7648      3.1438
H     -2.7909      9.7132      7.9546
C     -2.3610      8.2424      0.9347
C     11.5238      7.0283     12.0610
H     -2.5522     11.1499      5.2338
C      5.2696      2.0735      4.7393
H     17.5625     12.8696     17.2481
C    -10.4010     12.4510      9.0925
C     -8.1568     11.3243      7.9474
C     -1.7820      4.8597      4.0258
C     16.8325      9.7168     19.1891
C      2.6321      3.6994      2.7778
C     -7.9518      6.9133      9.6408
H    -10.9667     11.6492      9.8320
H     15.4086      7.4778     13.2920
H      9.1831      5.8588      4.4679
H      0.2286      4.0791     -0.2243
O      5.4491      6.4013      6.4189
C      0.6079      8.1575      4.6951
H     -8.1648     10.5196      7.2045
C     -2.8615      8.0685      3.5346
C     -2.3322      6.8601      2.9184
H     -5.2470      9.5759      9.4098
H      8.7050      3.3441      2.4017
C     -2.5570      8.6388      7.8985
H      3.0599      4.3019      0.0877
H     -0.9631      3.4568      9.1710
C      3.4499      1.3325      2.1924
C     -0.3654      8.4472      2.3176
O      4.0868      4.2232      0.1639
O      7.6912      4.0012     10.7222
C     -0.0088      2.7583      1.4845
C      0.3649      3.7444      3.9379
C     -5.9642     10.8125      7.4558
H     16.2462     10.6005     19.4967
H     -0.7942      9.8537      4.0618
H     12.5364      8.5801     11.0792
O      0.0639      9.9870      6.1701
C     -6.9859     11.2919      8.4228
C      0.7708      7.1124      6.9125
C     14.4064      7.5574     13.8551
C      0.4900      7.4909      3.2156
H     -4.8839     13.2817      8.4535
C      2.6998     -0.0416      3.7843
C      0.4598      2.5745      7.7197
C     -2.8054     10.4553      5.9192
C     -2.7653      3.6613      5.7670
C     18.3254     12.1024     17.5964
C    -10.2070     16.9518      9.8592
C      1.2313      1.9264      1.9527
C     -1.5238      7.3961      1.8202
C     -8.9860     12.3720      8.7474
N      2.5683     -1.1528      4.5303
C      3.7810      1.3873      0.6778
O     16.6403      6.4258     15.1504
C      9.4960      6.2686      0.6088
H     18.5565      9.1612     18.4265
C     -2.2603      3.9590      3.0787
C     -2.8615      8.3331      9.3318
H      7.7908      1.9271      7.9092
H     -4.4927      9.4456      6.2048
C     -2.9613      9.4216      0.9433
H     -8.8244      7.0965      8.9544
H      1.1858      7.3761      9.3333
H     -0.2460      9.5024      2.5330
H     12.7927     10.3420     11.4256
H      2.9378      1.6694      0.2174
H     -1.5795      3.6671      7.8596
C     14.6153      7.3220     15.3168
H      4.6210      2.1162      0.6447
C     13.5662     10.1896     12.0928
H      2.2868     -2.2717      4.3395
C      4.2071      8.2983      4.2295
C      7.4787      6.8954      3.1199
C     20.4812      9.7417     14.2928
C     18.5097      8.0089     14.6639
C      4.1402      6.0642      6.3476
C      1.7762      4.9265      2.6318
C      6.1340      5.9192     -0.0187
C      5.3811      7.3947      4.1068
C      8.2220      6.5460      0.5367
H     14.0001     10.9205     12.8001
C      4.2669      4.7517      7.4947
C      1.6215      5.1940      0.9995
C      6.0306      7.1193      5.4317
H      1.4502      1.5749      5.0048
H     -2.7470      4.4000      2.2193
C      7.3873      5.6188      0.7718
O      7.3787      7.3251      5.6390
H      8.9020      8.9688     11.7232
H     20.2803      9.4792     15.3008
H      1.0203      3.1189      3.6663
H      1.5465      4.5270     -0.9035
H      8.5192      2.2880      9.4340
H      4.2248      5.2212      3.9661
C     12.6929      7.9188     11.8603
H      6.4940      4.3488      6.9032
C     15.4952      6.2730     15.9198
H      0.0167      8.0284      8.7021
C     -1.8326      4.5317      5.3830
C      0.3349      7.0111      5.3554
H     -7.9367      9.1567      8.9261
H      2.8555      2.0174      4.8775
C      1.0692      5.7826      4.9293
H    -11.1855     12.1973      8.3128
H      2.4343     -0.3321      1.6466
H     13.6058      9.4985     16.0839
C     -4.9366      7.5870      8.1969
C     -8.5492     13.8038      8.6157
C      5.9238      7.3226      2.9100
C     -3.7960      9.4865      5.4349
C     -0.2258      6.1720      3.0561
C     -1.4617      6.2471      3.9346
H      1.9939      3.3944      0.2872
H      4.6287      5.2697     -1.6806
H     -3.3418      3.4271      6.8029
C    -10.5979     13.8625      9.2542
H     -1.7971     10.1411      6.1823
C      0.6208      5.1254      3.5771
C      5.1485      3.5123      2.4935
H      0.0912      4.2176      7.8310
H     -6.8040      8.9835      6.4795
C      7.5696      3.9283      9.4117
H     -2.8515     12.0415      7.6642
H     -6.0850     11.3758      6.4108
C      2.0851      7.0135      8.7607
C     -1.6155      5.6697      6.2639
C      3.0425      0.0121      2.5116
C      1.0495      4.6235      6.0221
C      1.9742      6.4025      7.3000
C      1.2767      4.1785     -0.0155
H     -1.4639      5.4449      1.2933
H      4.3447      1.6244      2.7403
H     -3.1143      9.0632     10.0848
H      4.2575      0.1639      0.4759
H     -4.1754      7.5700      7.0441
H      8.8865      3.1858      8.1659
C     -0.5884      9.1393      5.0780
C     -4.0175      7.5777      9.5057
H      4.1269      6.1858     -0.3425
H     -3.8547      8.3341      2.9325
C     -4.7038     11.2888      7.8623
H     -2.4922      2.7499      3.2244
H     -4.0685      9.5725      4.3745
C     -0.1715      7.7971      7.6079
C      0.4136      3.4083      5.4816
O      8.8851      4.9558      3.8626
C     -1.5623      8.1971      5.6501
C     -6.6173     13.7541      7.2069
C      5.3100      1.5960      6.2432
C      3.0721      0.5848      6.5399
H     -5.5908     13.7340      7.2215
H     -8.4866     16.1236      8.8076
H      0.9398      9.9032      5.8824
H     17.9593     11.8166     18.5474
C      1.9249      4.9753      6.9660
H     -0.0537      3.8707      2.0414
C      3.7827      5.4857      5.0273
C     -9.4678     15.8911      9.0020
H     20.9153      9.8947     13.3006
H      0.4625      6.0959     -0.3665
C      8.1069      7.1579     10.6170
H    -11.0290     16.4816     10.3674
H     11.6325      5.9169     12.0363
C      4.1948      3.0744      4.4498
C     17.6189      9.7313     18.0045
C     -6.3706     12.4664      9.2329
C     -6.2515      9.2940      7.4643
C      5.7459      4.2906      7.6895
C     -6.9656     13.7371      8.7375
H     -0.4433      5.7265      6.5975
H     -3.6187      9.6312      0.2107
H     -6.5412     12.1707     10.4116
H     10.1042      5.6994      1.1541
C     14.4971      9.8647     14.3510
H     -9.6065     16.7416     11.0728
H     -2.2639      8.8698      3.4145
