261

C     20.1165      8.9513     13.9598
C      3.7770      1.5930      7.1842
C      2.1063      2.8915      1.4028
C      7.0633      4.7516      2.5452
H     -2.9074      3.4872      3.1431
C      7.1680      3.4702      2.8350
C      3.4047      3.8467      5.5664
C     -6.2314      9.8501     10.3349
C     16.1686      7.2431     19.5854
C      5.9277      1.5515      4.0516
C     -7.0616      9.1151      9.4636
C     13.6740      8.7743     13.6803
N     -0.4186      2.6614      6.4886
C      0.5531      5.6977      0.5151
O     -1.8280      2.6984      1.8168
C      3.0767      3.9572      7.0299
C     15.4733      6.2110     17.4655
C     16.6048     10.3955     16.7753
H     -3.5361      3.2934      4.9013
H     17.0463      5.4320     16.1683
H     -7.5130      9.6102     11.7995
C     17.2886      9.2040     16.3708
H     -8.6259      8.2790     10.9065
H     -5.4838     10.5187      9.8742
H      8.1541      3.4804      3.3539
H     12.4754      6.9822     10.9098
H     -0.8714      5.2897      6.5282
C      2.7867      2.5673      7.5450
H     -3.1598     10.2334      0.0377
H      6.6320      0.7121      4.4089
O     15.3913     10.1136     14.6694
C     -4.7581     12.7519      8.7651
C      6.7462      6.1725      9.4663
H      2.4827     -0.2367      6.1585
H      3.0996      6.3477      9.3216
C      6.0292      2.5711      2.9228
H      6.4068      4.5854      7.5989
H     -5.3474      9.2389     10.8430
H     -8.0198     10.5693      9.1464
C     17.5464     10.8348     17.8066
C     -2.8248      8.7717      4.7616
O      1.9250      8.6057      5.0152
C     -1.5862      8.0756      7.1926
C      8.5363      8.1665     12.0338
C     20.3869      7.8125     12.9092
C      6.2498      7.0220     -0.8017
H      5.3776      4.2451      2.0673
H     17.5483      9.9129     14.6135
H      1.4357     -0.7495      2.8634
H     -4.9829      5.7365      7.7498
H     15.4239      9.6387     15.4710
C      7.0464      6.4276     10.9791
C      8.0776      5.6199      3.1904
H      8.5382      7.4012      2.1034
C     -1.1686      6.7959      5.1554
H     15.4928      8.7952     20.8000
H      4.3726      0.7653      2.6912
H     -6.8241     11.2768     12.2979
H     15.0866      7.2977     13.2092
C     -2.7904     11.5073      7.9349
C      5.6588      5.4530      9.5403
C     16.0324      7.5207     18.0290
C      4.5963      6.0347      0.5071
C     18.0212      9.1389     15.1912
H     -3.7620      7.8719      4.5498
H      8.5822      7.5263      4.1153
H     -9.4473     14.5252     10.5330
H     17.8440     12.3363     16.5171
C     -0.0816      3.6643      8.7403
C     13.1319      8.3995     12.3989
C      1.5818      1.8163      7.8155
H     -1.8115      6.6384      9.3576
C     -0.6471      6.5174      1.4363
H      5.5587      7.6518     -1.3292
H     -2.9125      2.5423      4.8261
H     -7.9240     11.0201     10.7723
C      9.8350      7.6367     12.6610
O     14.7127     11.3783     12.9518
C     -6.3241      8.6737      8.1156
C     16.3131      8.5853     20.1378
C     -9.3132     14.4747      9.4047
C      2.6324      1.5945      4.8441
H     -1.3468      9.9070     -0.4624
H     -6.7169     12.2926      6.7399
H     -9.2016     16.5663     10.5515
C      3.7093      3.2596      3.2225
H     -4.0532     10.1428      5.3197
C     -2.2445      8.5782      0.6046
C     10.8055      7.0697     11.7981
H     -2.4586      9.7210      6.9367
C      5.0909      2.0038      5.1774
H      4.2822     -0.0179      5.5390
H     -4.5463     13.7709      8.4045
C    -10.1632     12.2610      8.3950
C     -7.7501     11.2222      8.0527
C     -2.1960      5.3070      3.3210
C     16.9108      9.5775     19.4082
C      2.2953      3.5736      2.7525
C     -7.9811      8.2608      9.9158
H     15.9936      8.1030     13.9945
H     -3.1600      4.5354      1.6029
H     13.9472     11.6650     12.4213
H      1.7841      3.6452     -0.4986
O      5.9205      6.4700      6.7184
C      0.6465      8.2250      4.5753
H     -8.2656     10.5956      7.4071
C     -2.4580      8.8143      3.3724
C     -1.9830      7.7792      2.8126
H     -7.0301      8.3729      7.6392
C     -2.8465      7.5672      7.4962
H      2.1374      4.2668      5.3839
H     14.0232      8.7485     10.5652
H      6.1330      2.1935      1.7913
H      0.7670      4.2494      9.0325
C      3.2323      1.9662      1.1113
C     -0.0227      8.7396      2.0321
C     -0.6465      3.1540      1.6646
C     -0.4205      3.9767      4.1067
C     -5.1773     10.8355      7.4040
H     -3.8443      7.3673      6.9596
H     16.2520     10.2850     19.2671
H      1.0213      6.5453     -0.4851
O      0.0766      9.6672      6.4307
C     -6.4165     11.6024      7.7628
C      0.5608      7.0275      6.9983
C     14.9770      7.9626     14.1548
H     15.8448      7.9339     15.8292
C      0.5716      7.6323      3.0532
H     -4.3232     12.6136      9.9807
C      2.4151      0.6941      3.5908
C      0.2085      2.3348      8.1041
C     -2.2382     10.7218      6.6034
C     -2.6706      3.4337      5.3331
C     18.0184     12.1329     17.6076
C     -9.8158     16.8664      9.7138
C      0.6563      2.3836      1.0830
C     -1.1914      7.9455      1.4390
C     -8.8806     12.2357      8.0000
N      1.5100     -0.1376      3.7770
H      4.1685      0.9776     -0.4876
C      3.1040      1.3022     -0.3080
O     16.8892      6.0003     15.4983
C      9.3889      6.6001      0.9048
H     18.9150      9.4490     18.9636
H     -0.3507      1.3601      8.4673
C     -2.7456      4.3450      2.5578
C     -2.5805      7.3074      9.1200
H      1.3943      1.5300      6.7428
H      7.8193      5.0019      0.3035
H     -4.4405      9.0243      6.8216
C     -2.3307      9.6422     -0.0782
H      5.2855      5.6317     10.5546
H      2.6527      7.8126      9.1890
H     -1.2116     10.0967      4.5480
H     15.0812      9.8266     11.9192
H      2.5852      2.1006     -0.6906
H     -0.3830      3.5247      9.7339
C     14.8520      7.4487     15.4434
C     14.0211      9.1866     11.5407
C     -7.1641     10.5815     11.3775
H     15.7481     10.4538     17.7981
C      4.6585      8.1703      4.6077
C      8.0286      7.0352      3.2422
C     21.3284      9.4547     14.6694
C     19.2883      8.3913     15.0020
C      4.4039      5.8900      6.4487
C      1.6773      4.9493      2.7482
C      5.8162      6.0922      0.3241
C      5.6735      7.0469      4.2987
C      7.8608      6.7072      0.9019
C      4.2215      5.0123      7.5749
C      1.4590      5.1244      1.2513
H     -2.6311      5.7924      6.5464
C      6.5123      6.8383      5.4331
H      9.8548      5.6690      0.6751
H      1.0178      1.5322      1.5762
C      7.0730      5.5254      0.9577
H     -0.6919      3.2826      3.4206
O      7.8133      6.6122      5.4719
H      8.7442      8.9299     11.7330
H      1.7031      3.1516      3.6201
H     -0.4293      9.6234      2.6421
H      3.3032      4.0398     -0.0119
H      4.2717      4.9139      4.1604
C     12.1083      7.5221     11.6413
C     15.5639      6.0080     16.0402
H      1.1620      7.1268      9.2959
C     -1.8357      4.6528      4.7317
C      0.2737      7.0609      5.3504
H     -8.7543      8.1029      8.9874
H      1.6889      1.9877      5.0045
C      1.0209      5.8426      4.7862
H      2.9724      0.0726      2.0322
H     16.4796     11.5386     16.5004
H     -0.3738      7.2949      8.8644
C     -4.8347      5.9423      8.7798
C     -8.6097     13.6131      8.3969
C      6.6691      7.6607      3.2652
C     -2.8671     10.2100      5.2822
C     -0.2660      6.3841      2.8706
C     -1.5001      6.6115      3.6381
H      3.9062      7.1396      0.0534
H     -2.5399      3.3809      6.3183
C    -10.8877     13.6500      8.9381
C      0.3840      5.2033      3.6639
C      4.8325      3.3813      2.6341
H      1.2085      5.0819      7.9663
H     -2.3199     12.4261      8.2741
H     -4.7016     11.1132      6.5092
C      2.1537      6.9607      8.8809
C     -1.5640      5.6630      6.0098
C      3.2664      0.9177      2.3959
C      1.2574      4.7592      5.7168
C      2.0372      6.5555      7.3974
C      2.3408      4.1479      0.5332
H     -1.5383      5.7871      1.5991
H      2.2986      0.5150     -0.3538
H     -1.2748     11.1397      6.4261
H      5.1198      0.8760      3.7401
C     -0.5580      9.2740      5.1415
C     -4.0093      6.9878      9.5361
H      3.7855      5.0147      0.5292
H     22.0810     10.0129     14.0880
C     -4.1883     11.5762      8.1013
H     -2.5455     10.6334      4.2262
H     -6.8901     14.7469      9.3911
C     -0.5295      7.5289      7.8519
C      0.1356      3.4774      5.5957
O      8.6765      4.9164      4.2014
C     -1.7425      8.2743      5.5683
C     -6.6211     14.3269      7.1802
C      5.2380      2.1370      6.5025
C      3.2339      0.5106      6.0137
H      9.4975      4.6719      4.5809
H     -5.7082     14.7591      7.5299
H      5.5046      3.3156      8.0198
H     -4.8296      8.9233      8.6115
H     19.0221     12.3155     17.6707
H    -10.8111     11.4007      7.6841
C      1.7810      5.0581      7.0175
H     -0.7988      4.2236      1.6702
C      4.1867      5.1404      5.1601
C     -9.5237     15.8843      8.8823
H     21.6231      9.0686     15.7343
C      8.4040      7.3631     10.7374
H      3.5746      5.4169      8.5826
H     -6.2804     13.4451      6.8746
C      3.6989      2.6033      4.6545
C     17.9668      9.6454     18.4500
C     -6.1449     12.5494      8.8585
C     -5.1210      9.3374      7.5903
C      5.4975      4.4348      8.2372
C     -7.0026     13.8512      8.5609
H     -0.7954      4.4343      8.2309
H      0.7687      2.4182      0.0374
H     19.3872      9.6464     13.5948
H      7.1548      5.4289     11.2225
H     -1.4396      2.3397      5.9962
C     14.2316     10.2222     13.8935
H    -10.3325     17.8314      9.5471
H     -2.7349      9.6567      2.5170
