264

C     19.6246      8.6045     13.5516
N     -3.3744     10.2536      1.9824
C      3.9419      1.7820      7.1716
C      2.2550      2.4334      2.3367
C      7.4050      4.7460      2.2024
H     -3.1843      6.6004      2.6778
C      7.7827      3.2833      2.1642
C      3.4658      3.9862      5.5038
C     16.2109      7.0101     19.4509
C      6.6577      1.8291      3.9577
C     -6.9051      8.4725      9.5137
C     13.5201      8.8129     13.8020
N      0.2054      2.3614      6.2596
C      0.6453      6.5626      0.7414
O     -1.0232      2.5407      0.9383
C      3.0679      4.0668      7.0586
H     13.7169      7.1759     11.2665
C     15.6146      6.2097     17.3405
C     16.9094     10.4030     16.3112
H    -11.4931     13.6626     10.3835
H     -2.4374      2.4955      4.9278
H     17.5575      6.5127     15.7119
C     16.8621      8.8950     16.1053
H     -8.2197      7.3827     10.6583
H     -6.1735      8.3270     10.4939
H    -10.8009     17.4376      9.0592
H     -6.5408     14.7573      8.9562
C      2.9595      2.8420      7.9740
H      7.2964      2.4909      4.2097
O     14.0272     10.3807     15.5299
C     -5.0731     12.2631      9.1762
C      6.1269      6.0987      9.5491
H      3.6962     -0.1893      6.2638
H      3.9881      5.3031      8.4169
C      6.4108      2.6091      2.5904
H      5.9088      3.1785      7.4831
H     -8.4898     12.3704     10.1819
H      3.0327      7.6105      8.7963
C     17.6473     10.7616     17.4481
C     -2.8666      8.2827      5.1176
O      1.9759      8.6588      4.7915
C     -1.3821      8.2852      7.1095
C      8.8362      7.9594     11.7026
C     20.5962      7.4961     12.7800
C      6.5809      6.7112     -1.0045
H     17.5859      9.5367     13.9453
H      2.9772     -1.3629      4.9804
H     -5.7041      6.4456      7.6734
C      7.8693      2.8489      8.4456
H      1.1659      1.2688      1.2440
C      7.2164      6.3844     10.7375
C      7.8821      5.6766      2.9274
H      8.6032      7.5227      1.9976
C     -1.0606      6.7750      5.3818
H     16.7075      8.5619     21.1531
H     16.8916     11.0071     15.3533
H      2.4230      5.9157      0.5414
C     -3.4135     11.3526      7.6682
C      6.2576      4.8272      8.8070
C     16.0603      7.4286     17.8474
C      4.7465      5.4461     -0.3282
C     17.5595      8.6889     14.7622
H     -3.5406      7.5513      5.5673
H      8.3611      7.4478      4.1201
H     -9.3180     14.3531     10.7971
H     19.0871     12.5528     17.0367
C     -0.4947      3.4050      7.9848
H     19.2332     10.2657     14.3692
C     13.0698      9.0473     12.4858
C      1.6885      2.0449      8.2170
H     11.1541      6.4449     10.8497
C     -0.6288      6.1751      1.6238
H      5.6877      7.2286     -1.2684
H     18.8139      9.0780     12.6839
C     10.1569      7.3142     12.4963
O     15.4811     10.3195     13.8006
C     -5.6302      8.5968      8.2604
C     16.9198      8.3163     20.1826
C     -9.4255     14.5480      9.8522
C      2.5865      0.9937      4.9798
H     -4.4156      9.8711      2.6531
H     -3.0476     11.3113      2.3244
H     -7.0076     12.7141      6.7520
H      2.5074      5.8257      9.2678
C      4.1780      3.5613      3.2435
H     -2.4872      9.8845      8.2985
C     -2.5977      8.2318      0.7010
C     11.4327      6.8727     11.9077
H     -3.1799     12.1052      5.7017
C      5.4363      2.1024      4.9018
H     17.4912     13.0166     17.3287
C    -10.7039     12.4328      8.9771
C     -8.4857     11.0062      8.5319
C     -1.7332      4.8594      3.9497
C     16.4917      9.5194     19.4920
C      2.7774      3.6156      2.6417
C     -7.7579      7.1415      9.5415
H    -11.3596     11.6321      9.3164
H     15.5897      7.5847     13.4889
H      8.0306      4.0867      4.1583
H      0.2711      4.5452     -0.4329
O      5.5991      6.5427      6.3752
C      0.6174      8.0460      4.6153
H     -8.8793     10.2335      7.5481
C     -2.8943      8.3630      3.6969
C     -2.3432      7.2298      3.0318
H      8.7526      2.9516      2.4566
C     -2.5089      8.8724      7.9304
H      2.4083      3.7380      5.1814
H      3.8237      4.6204      1.0831
H     -0.9828      3.2995      8.9135
C      3.2100      1.3151      1.9538
C     -0.3233      8.3796      2.3810
O      3.8654      4.3437      0.0994
O      8.0769      4.0613     10.5864
C     -0.1162      3.0378      1.5716
C      0.5861      3.4117      4.0567
C     -6.1302     10.7448      7.4866
H     15.6530      9.8661     19.6473
H     -1.0622      9.7536      4.5743
H     12.3654      8.3838     10.8457
O      0.0027     10.1628      6.1201
C     -7.0302     11.1437      8.5402
C      0.8130      7.1399      6.9740
C     14.5510      7.6297     14.0778
H     15.3643      8.3524     15.5343
C      0.6522      7.5686      3.1308
H     -4.7612     13.0136      8.6323
C      2.6384     -0.1821      3.9294
C      0.3902      2.6460      7.4552
C     -3.0459     11.0631      6.2043
C     -2.4731      3.2371      5.7461
C     18.2666     12.2749     17.7573
C    -10.1945     17.1711     10.1032
C      0.8102      2.0506      1.8668
C     -1.4534      7.5973      1.7504
C     -9.1579     12.3921      9.0959
N      2.1370     -1.3066      4.3748
C      3.4419      1.3495      0.4846
O     16.8156      6.3029     15.0372
C      9.5161      6.0731      0.5919
H     18.4079      9.0600     18.5038
C     -2.3393      4.1415      3.0451
C     -2.8883      8.1699      9.2758
H      7.4097      2.7690      7.2995
H      7.6257      3.1908     10.5068
H     -4.8573     10.1131      5.9317
C     -3.5447      9.3113      0.9247
H     -8.7016      6.6961      8.9442
H      1.3218      7.2290      9.5557
H     -0.8840      9.0192      3.2864
H     13.1245      9.8754     10.7166
H      2.4278      0.9813      0.0515
H     -0.5713      4.2141      7.3274
C     14.8498      7.3208     15.5260
C     13.3864     10.2760     11.8616
H      7.6514      4.5314     11.2766
H      2.6564     -1.8422      3.3467
C      4.2006      8.2088      4.2903
C      7.8115      7.1139      2.9799
C     20.1272      9.9384     13.9800
C     18.8875      8.1338     14.6923
C      4.4008      5.8710      6.3135
C      1.8591      4.8546      2.6351
C      6.0997      5.7782      0.1726
C      5.5856      7.6049      4.0177
C      8.2251      6.3373      0.5030
H     13.9335     11.2050     12.2160
C      4.1899      4.9098      7.4951
C      1.6662      5.3674      0.9428
H     -3.3029      9.2121      7.2268
C      6.1508      7.2347      5.3970
H      1.6421      1.6831      5.1442
H     -2.8228      4.5540      2.2237
C      7.2118      5.4954      0.8302
H     -0.4713      3.2990      3.7934
O      7.4175      7.3600      5.3455
H      9.0510      8.9183     11.3857
H     20.6432      9.7260     15.1133
H      2.1847      4.0669     -1.1369
H      8.1035      1.9189      9.0828
H      5.0017      5.3227      4.3778
C     12.6671      7.7380     11.6095
H      6.3931      5.1495      7.0285
C     15.6806      5.9369     15.8755
H      0.0252      7.9405      8.8605
C     -1.8351      4.3901      5.2121
C      0.3752      6.8979      5.5466
H     -7.7653      9.1404      9.4941
H      3.1742      1.9599      4.5117
C      1.1550      5.7149      4.9282
H    -10.6581     12.4918      7.8310
H      2.9097     -0.5954      2.0074
H     14.2248      9.7113     16.3387
C     -5.0026      7.3474      8.0042
C     -8.7451     13.8910      8.5125
C      6.4187      7.4483      2.8924
C     -3.7613      9.9380      5.3974
C     -0.0552      6.1865      2.9807
C     -1.2815      6.2390      3.9038
H      1.7450      3.4776      0.2352
H      4.7689      5.6226     -1.3592
H     -2.0189      2.6997      6.6407
C    -10.8542     13.9885      9.4584
H     -1.8668     11.1972      6.1422
C      0.8309      4.9922      3.5716
C      5.4293      3.5697      2.5534
H      1.2075      4.4797      7.9689
H     17.9166      8.3522     19.9937
C      7.3163      4.0127      9.2062
H     -2.7275     11.8908      8.1991
H     -6.2368     11.2453      6.4710
C      2.1347      6.9608      8.8267
C     -1.6628      5.4878      6.2000
C      2.6372      0.2701      2.6137
C      0.8622      4.6522      5.9023
C      1.9841      6.4161      7.3654
C      1.4270      4.2955     -0.2320
H     -1.4548      5.3804      1.7350
H      4.1775      1.8151      2.2637
H     -2.5824      8.1119     10.2715
H     -4.4446      7.4798      7.1507
H      8.8085      3.4413      8.1296
H      6.9436      0.9272      3.6766
C     -0.3955      9.1216      5.1129
C     -3.9091      7.2693      9.0492
H      4.0062      6.3892     -0.1884
H     -3.8940      8.6243      3.1218
C     -4.7255     11.2938      7.9776
H     -2.8675      3.0000      3.2867
H     -3.8431     10.2414      4.3448
C     -0.1012      7.9585      7.6100
C      0.5257      3.3327      5.4274
O      8.4348      5.0618      4.0107
C     -1.5435      8.3524      5.6630
C     -6.7476     13.6803      7.0489
C      5.1968      1.6510      6.3789
C      3.1788      0.7997      6.2954
H     -5.7716     14.1975      6.6176
H     -8.5605     16.5516      9.5869
H     -4.5742     12.2193     10.2305
H      0.4940     10.8261      5.5006
H     18.1415     12.1444     18.9133
C      1.7679      4.8602      7.0116
H     -0.0206      4.2772      1.8007
C      3.8739      5.3254      5.0248
C     -9.3363     15.8960      9.3438
H     20.5849     10.5024     13.1584
H      0.5765      6.4664     -0.4282
C      8.4197      6.9847     10.4654
H    -10.8577     16.2674     10.5791
H     11.6691      5.6702     12.3537
C      4.3476      2.9255      4.6307
C     17.4149      9.6858     18.3552
C     -6.5230     12.3754      9.2067
C     -6.3047      9.1756      7.1823
C      5.7288      4.2369      7.4909
C     -7.0876     13.7114      8.5222
H     -0.9230      5.3484      6.9378
H     -3.7871      9.6361      0.0178
H     -7.1394     12.2792     10.0352
H      9.5329      5.0346      1.0458
C     14.4187      9.8926     14.3352
H     -9.6659     17.8158     10.9617
264

C     19.5655      8.8998     13.8997
N     -1.6463     10.4354      2.0279
C      3.9688      1.7383      7.1239
C      1.9982      2.6597      1.6048
C      7.5787      5.0086      2.3214
H     -3.0723      7.1860      2.3490
C      7.3203      3.7325      3.1029
C      3.0013      3.8736      5.3597
C     16.1041      6.9287     19.5789
C      6.0806      1.9729      4.0543
C     -7.2610      8.4674      9.4844
C     13.6549      8.7010     13.6491
N     -0.1435      2.7439      6.2620
C      0.4472      5.8631      0.5317
O     -1.4987      2.6160      0.7793
C      2.8605      3.9873      7.1088
C     15.4979      6.0517     17.4404
C     16.1686     10.1721     16.5114
H    -11.8383     13.2951      9.4794
H     -3.4809      4.1458      5.2656
H     17.1563      6.8591     15.0422
C     16.9596      9.0785     16.1851
H     -6.3579      8.8892     10.4603
H      8.2815      3.3462      3.2979
H     12.8505      6.8950     10.9026
H     -1.1588      5.6718      6.4705
H      8.7254      2.4562     10.0493
C      2.9191      2.6786      7.7568
H      7.2393      1.8310      3.8579
O     14.2345     10.7379     14.7296
C     -4.8695     12.8333      8.2219
C      6.8660      5.9827      9.7870
H      2.7714      6.6057      9.6681
C      6.0857      3.3154      3.4405
H      6.1194      4.9207      7.3338
H     -8.7515      6.8338      9.0592
C     17.1651     10.9520     17.4537
C     -3.0137      8.6163      4.9115
O      1.7779      8.4633      4.6176
C     -1.6090      8.1533      6.7870
C      8.7093      8.4670     11.8071
C     20.5216      7.9567     12.8440
C      6.6295      7.0613     -0.9019
H      4.8348      4.3829      2.0215
H     17.2136     10.0793     14.3009
H      1.2540     -1.3109      3.4167
H     -5.9563      7.2879      8.1286
C      7.7642      2.9290      9.5212
C      7.0802      6.8879     10.7337
C      7.8773      5.9123      3.3048
H      8.4901      7.6417      1.8746
C     -1.2729      6.8289      4.9447
H     16.3362      8.1206     21.3896
H      2.4664     -0.8877      1.9420
H     15.9492      7.8204     13.1794
C     -3.1707     11.7587      6.8643
C      5.9898      4.7743      9.4268
O      5.3237      3.1613     10.5277
C     15.8258      7.4193     17.8727
C      4.8917      5.5734      0.0060
C     17.5525      9.2525     14.9491
H     -3.7191      7.7273      4.9307
H      7.6999      7.2176      4.0914
H     -8.9737     14.8133     10.6811
H     -6.5323     12.4451     10.0704
H     17.4962     13.0044     17.2045
C      0.0920      3.3898      8.7436
H     20.3679     10.5894     13.5334
C     13.1892      8.6298     12.2863
C      1.7655      1.7681      7.7525
H     -2.0932      8.4197      9.8287
C     -0.7130      6.1703      1.4619
H      5.6883      7.5128     -1.0880
C      9.8973      7.8604     12.4104
O     15.4442     10.3945     12.8884
C     -6.2510      8.4821      8.3849
C     16.7559      8.1671     20.3698
C     -9.2608     14.3314      9.5437
C      2.6405      1.5317      4.8304
H     -1.5326     11.3864      2.0344
H     -7.0117     11.7834      6.9335
H     -9.6526     16.7715     10.9912
C      3.6894      3.3839      3.3080
H     -3.4868      9.1383      6.9219
C     -2.4063      8.4350      0.6446
C     10.9314      7.4957     11.4228
H     -1.6235     10.8205      5.9266
C      5.0002      2.3619      5.1690
H      4.1392      0.0684      5.9093
H     -1.1743      1.7815      0.5586
C    -10.2010     12.3003      8.7670
C     -7.8382     11.0299      8.4463
C     -2.3460      5.1951      3.3960
C     16.7248      9.2158     19.3671
C      2.2385      3.2724      2.9319
C     -8.1338      7.5192      9.8653
H     16.1141      8.3696     14.5124
H      7.9202      5.1027      4.7958
H      2.7546      4.9332     -0.5470
O      5.4068      6.3372      6.6228
C      0.4224      8.0668      4.3097
H     -8.1568     10.2683      7.7866
C     -3.4529      8.7225      3.5987
C     -2.2740      7.7467      2.6597
C     -2.8262      7.7717      7.4826
H      2.0382      4.1441      5.0584
H     14.0787      8.7992     10.4385
H     -0.4320      3.9535      8.1036
C      3.0116      1.5784      1.5047
C     -0.1484      8.3893      1.9505
O      7.1554      4.3798     11.6379
C     -0.5612      2.9291      1.9266
C     -0.5565      4.0186      4.2473
C     -5.4943     10.6795      7.5785
H     -3.6391      7.3308      6.9497
H     15.7173      9.1891     19.1033
H     -0.8916     10.0190      4.0000
H      0.7620      6.4118     -0.3285
O      0.2162      9.8692      5.6233
C     -6.6359     11.4813      7.8309
C      0.4647      7.1629      6.7716
C     15.1956      8.0143     13.9904
C      0.5655      7.4319      2.7986
H     -4.3338     13.3773      8.9780
C      2.3502      0.5084      3.7246
C      0.3032      2.2444      7.6693
C     -2.7216     10.7002      6.1146
C     -2.6532      3.5776      5.3752
C     17.8747     12.2002     17.5018
C    -10.0023     16.8077      9.8345
C      0.7598      2.1047      1.4474
C     -1.3701      7.8062      1.5048
C     -8.9201     12.1757      8.5325
N      1.6495     -0.4734      4.1030
C      3.6517      1.3870      0.0330
O     16.8826      6.0351     15.6361
C      9.1713      6.5998     -0.0626
H     18.6948      9.9231     18.5883
H      0.0655      1.1470      7.6185
C     -2.8487      4.7391      2.1875
C     -2.7366      7.7303      8.9115
H      8.0264      3.6120      8.7348
H      1.7182      1.1181      6.8395
H      7.8964      5.0383     11.6381
H     -5.4778     10.3248      9.7399
C     -1.9146      9.8079      0.5908
H     -7.9221      7.1742     10.8946
H      1.5418      7.9461      9.3370
H      0.1359      9.2625      2.5051
H     14.2139     10.2106     11.5342
H      3.7723      0.2653      0.0748
H      0.9765      3.6945      8.9064
C     14.9990      7.2397     15.3771
H      2.7861      1.2968     -0.9929
C     13.8967      9.3422     11.3595
H      5.6498      2.3211     11.0009
H     15.1211     10.1612     16.8944
C      4.2220      8.1525      4.3828
C      7.4840      7.3188      3.1693
C     20.7293      9.6720     14.3450
C     18.4340      8.0069     14.6885
C      4.1321      5.8241      6.5013
C      1.6019      4.8288      2.6284
C      6.3534      5.8788      0.0958
C      5.4279      7.5968      4.3304
C      8.1524      6.9346      0.9062
C      4.1547      4.7133      7.5892
C      1.4114      5.2931      1.1583
H     -2.7098      5.9401      6.2461
C      6.3358      6.8544      5.6142
H     -3.1641      5.6411      1.8416
H      0.3007      1.4488      0.5487
C      7.3967      5.7979      0.8219
H     -0.7449      3.3820      3.3704
O      7.5517      7.2359      6.0382
H      8.6810      9.4893     11.3272
H     21.2821     10.0944     15.2631
H      1.4988      2.4785      3.5419
H     -0.9462     10.2807      2.7545
H      2.9552      4.3398      0.9826
H      4.5203      5.2764      4.2376
C     12.3374      7.4585     11.7607
H      6.4450      5.8459      5.0745
C     15.4739      6.0669     15.9792
H      1.0568      6.3686      8.9196
C     -1.9122      4.5539      4.6391
C      0.2690      7.0700      5.2381
H     18.0231      8.0024     20.4635
H      1.5795      1.8454      5.5795
C      1.1347      5.8427      4.9629
H      1.2438      0.7176      1.8605
H     16.1389     10.9226     15.7834
H      0.0459      8.6975      8.2383
C     -5.1938      6.3822      8.8338
C     -8.4669     13.4697      8.3440
C      5.9961      7.5766      2.9301
C     -3.6943      9.3994      5.8176
C     -0.4761      6.1631      2.9159
C     -1.7443      6.5209      3.5478
H      4.7252      5.6058     -1.1742
H     -1.9984      3.2626      6.3643
C    -10.8202     13.7087      9.0074
C      0.4174      5.0476      3.6241
C      4.9443      3.8091      2.8571
H      1.1097      4.5970      8.0514
H     -4.5695      8.7316      8.3408
C      6.5588      3.8897     10.3423
H     -2.3273     12.1713      7.4004
H     -5.8932     10.4576      6.4606
C      1.9337      6.8381      8.8415
C     -1.8169      5.8762      5.7234
C      2.5010      0.2164      2.0413
C      0.7701      4.9233      6.0045
C      2.0542      6.5185      7.5137
C      2.3425      4.5207      0.1744
H     -1.5063      5.4452      0.9592
H      3.8422      1.8212      2.1258
H      4.3486      1.9876     -0.6622
H     -4.9970      5.6249      7.9011
H      6.9917      2.2185      9.3020
H      5.5312      1.0211      3.7234
C     -0.5183      9.1208      4.6789
C     -3.9978      7.4508      9.4368
H      4.4165      5.9420      1.1082
H     -4.5063      8.5104      3.4097
C     -4.4112     11.8241      7.5059
H     -3.4002      3.6814      2.1513
H     -4.5579     10.0735      5.5273
H     -6.6347     14.5423      8.8857
C     -0.3093      8.0768      7.4342
C      0.2681      3.7963      5.4991
O      8.6998      5.6514      4.4873
C     -1.6805      8.3927      5.2384
C     -6.5573     14.0676      7.0043
C      5.2915      2.1186      6.5061
C      3.2280      0.7360      6.0302
H      8.1301      7.1365      5.3181
H     -5.8412     14.9342      7.3800
H      6.0719      3.4818      7.6240
H      0.9099      9.1151      6.1369
H     18.7527     12.0611     17.9735
C      1.6060      5.0616      7.2575
H     -0.2997      3.9587      1.9234
C      3.7652      5.1473      5.0315
C     -9.6315     15.5954      9.0627
H     21.5976      9.5519     13.7120
C      8.3170      7.4615     10.6269
H      3.8470      5.0883      8.4979
H     10.6917      6.5239     10.8382
H     -6.2312     13.2822      6.2632
C      3.7046      2.6858      4.5543
C     17.6284     10.0803     18.7620
C     -6.3668     12.4879      8.8789
C     -5.3814      9.7789      8.6572
C      5.4950      4.4160      8.0133
C     -7.0674     13.7687      8.3283
H     -0.4159      3.3088      9.6884
H      1.7920      3.5237      0.0248
H     18.8400      9.2479     13.0136
H      9.7966      5.7212     -0.6344
H     -0.8922      2.2904      5.8441
C     14.5527     10.0264     13.8067
H    -10.5532     17.6538     10.1574
H     -2.8837      9.4603      3.2729
264

C     19.6394      8.8709     13.8194
N     -1.5840     10.3726      1.8180
C      3.9781      1.5985      7.2297
C      2.0156      2.5690      1.7310
C      7.4437      4.9137      2.2668
H     -3.0504      7.0403      2.1445
C      7.3354      3.7544      2.9923
C      2.9399      3.8588      5.4354
C     16.1163      7.0261     19.5824
C      6.0290      2.0414      4.0104
C     -7.1606      8.3390      9.5079
C     13.6867      8.8076     13.7209
N     -0.1012      2.7958      6.3008
C      0.3979      5.9740      0.5568
O     -1.6339      2.6401      0.9277
C      2.9074      4.1058      6.9952
C     15.4617      6.1544     17.6175
C     16.2385     10.3809     16.5160
H    -11.4301     13.3424      9.6857
H     -3.2747      4.1993      5.4289
H     16.9160      6.9128     15.5014
C     16.9484      9.0243     16.2723
H     -6.8102      8.8803     10.4439
H      8.3396      3.3416      3.6080
H     13.1885      7.1111     11.1561
H     -1.1999      5.9101      6.6242
H      8.7098      2.9118      9.7986
C      2.8508      2.6186      7.6757
H      6.8573      1.4998      4.2694
O     14.1866     10.7440     14.9031
C     -4.8019     12.9501      8.4268
C      6.9039      6.0587      9.8068
H      2.9914      6.4808      9.3146
C      6.2028      3.3750      3.4493
H      6.0965      5.0942      7.6108
H     -7.7595     10.9120      9.5676
H     -8.2431      6.6527      9.4462
C     17.0798     10.9482     17.7252
C     -3.0742      8.5288      5.0736
O      1.9286      8.3211      4.6268
C     -1.6481      8.0582      6.8085
C      8.6632      8.5546     11.7050
C     20.5334      7.9422     12.9077
C      6.5583      7.1462     -0.8084
H      5.0348      4.2630      1.7411
H     17.1471     10.1131     14.2433
H      1.5095     -1.3275      3.5357
C      7.7518      2.8640      9.3308
C      7.0877      6.9185     10.7733
C      7.9607      5.9401      3.1490
H      8.4625      7.5276      1.9586
C     -1.3104      6.8455      4.9015
H     16.1372      8.3167     21.3138
H      2.3773     -0.9408      1.9195
H     15.6848      7.3276     13.1850
C     -3.1525     11.6054      6.9435
C      6.0947      4.8761      9.4003
O      5.5010      3.0607     10.6293
C     15.9627      7.3960     17.9323
C      4.9813      5.4821      0.0363
C     17.4657      9.2554     14.8802
H     -3.3750      7.4615      5.1884
H      7.3540      7.8409      4.0127
H     -9.0767     14.5973     10.4619
H     -6.5072     12.0781      9.9020
H     17.7781     12.9077     17.1983
C     -0.0102      3.1989      8.7787
H     20.7537     10.4620     13.5505
C     13.2950      8.5774     12.1990
C      1.7070      1.6385      7.6843
H     -1.8766      7.8362      9.5387
C     -0.6941      6.1577      1.5505
H      5.6266      7.4462     -1.1791
C      9.8639      7.8481     12.4575
O     15.3460     10.4304     12.8750
C     -6.2416      8.5441      8.3091
C     16.7835      8.2082     20.3715
C     -9.3988     14.3075      9.6107
C      2.6095      1.5330      4.7906
H     -2.0156     11.3231      1.5208
H     -6.9873     11.9690      6.9058
H     -9.4722     16.7515     11.0369
C      3.7931      3.3236      3.2726
H     -3.9764      9.1525      7.0057
C     -2.3986      8.5639      0.6821
C     10.9826      7.5709     11.5462
H     -1.7167     10.5847      5.8640
C      5.0577      2.4492      5.2651
H      4.1553     -0.1589      5.9877
H     -1.5495      2.0277      0.0884
C    -10.2896     12.3369      8.7667
C     -7.9626     10.9019      8.5507
C     -2.2260      5.1474      3.4793
C     16.5835      9.3231     19.3144
C      2.2382      3.3196      2.8620
C     -8.2395      7.4450     10.0429
H     15.4687      8.9443     14.2525
H      7.9041      5.1359      4.9954
H      2.4608      4.8511     -0.6893
O      5.3692      6.5169      6.5556
C      0.4373      8.0570      4.2176
H     -8.3121     10.1946      7.8149
C     -3.2411      8.6714      3.4320
C     -2.4072      7.6602      2.7707
C     -2.6829      7.7153      7.5345
H      1.9969      4.0018      4.8092
H     13.7109      8.9302     10.1928
H     -0.6288      3.7762      8.1795
C      3.1973      1.7232      1.4934
C     -0.1503      8.4508      1.8913
O      7.3185      4.4890     11.5699
C     -0.4802      2.8532      1.8229
C     -0.4990      3.9257      4.2196
C     -5.4775     10.6544      7.4724
H     -3.6119      7.2687      7.1513
H     15.6728      9.5787     18.8552
H     -0.8233     10.2789      4.1898
H      0.4360      5.9206     -0.5144
O      0.2219      9.8223      5.6863
C     -6.7471     11.5320      7.8427
C      0.7225      7.1778      6.7366
C     15.0797      8.0009     13.9598
H     15.3541      8.4008     15.7414
C      0.5545      7.4725      2.9318
H     -3.9893     13.5001      9.0422
C      2.4105      0.4462      3.7553
C      0.1712      2.3437      7.6330
C     -2.7166     10.6677      6.1448
C     -2.5055      3.4817      5.3679
C     17.8291     12.0585     17.6567
C     -9.9091     16.6998      9.8528
C      0.7150      2.2521      1.3129
C     -1.4161      7.8163      1.5452
C     -8.9197     12.1381      8.5109
N      1.7330     -0.5018      4.2439
C      3.4731      1.4650     -0.0030
O     16.7366      5.9875     15.4331
C      9.4097      6.5842      0.1320
H     18.7700     10.1914     18.7272
H     -0.2735      1.4402      7.6304
C     -2.8057      4.9338      2.2751
C     -2.6564      7.7038      8.8695
H      8.0815      3.4388      8.4714
H      1.6242      1.1821      6.9074
H      7.7662      5.3337     11.3338
H     -5.3718      9.9189      9.7074
C     -1.9487      9.7848      0.6835
H     -8.0313      6.9851     11.0042
H      1.7096      7.8254      9.0888
H     -0.1735      9.1007      2.8553
H     14.1977     10.3612     11.4654
H      4.2637      0.4088      0.2291
H      0.7138      3.9150      8.6951
C     15.0106      7.4011     15.2895
H      2.8356      0.9836     -0.7243
C     13.7240      9.4817     11.2553
H      6.0046      2.2224     10.9567
H     15.0145     10.1031     17.0376
C      4.0918      8.1480      4.3855
C      7.4797      7.2691      3.1066
C     20.8324      9.7366     14.4256
C     18.4931      8.1152     14.5869
C      4.1625      5.8319      6.4331
C      1.6259      4.7096      2.6033
C      6.2848      5.8768      0.0317
C      5.4069      7.6152      4.3488
C      8.2780      6.9839      0.9250
C      4.1718      4.8601      7.5458
C      1.4525      5.3174      1.0834
H     -2.9066      5.7458      5.6192
C      6.1748      6.7096      5.6520
H     -3.4598      5.1064      1.4382
H      0.2819      1.3848      0.5310
C      7.4735      5.7421      0.9312
H     -0.8426      2.9734      3.8252
O      7.4695      7.2727      6.1490
H      8.6649      9.4312     11.0457
H     20.8587      9.9048     15.5799
H      1.4503      3.0325      3.6506
H     -0.8714      9.9741      2.2004
H      2.9799      4.0678      1.1646
H      4.5548      5.1679      4.2192
C     12.2927      7.5600     11.5522
H      6.4460      5.8783      5.0378
C     15.5464      6.0303     15.8986
H      1.0673      6.3531      9.2453
C     -1.9521      4.5554      4.7058
C      0.1983      6.9465      5.2264
H     17.7400      7.9690     19.9551
H      1.6092      2.0640      5.2762
C      1.1058      5.8652      4.8504
H      1.4073      0.6451      2.2837
H     15.9344     10.8865     15.6227
H     -0.1113      8.4870      8.2601
C     -5.0668      6.4803      8.7878
C     -8.4630     13.4185      8.3537
C      5.9884      7.6946      3.0185
C     -3.7163      9.5673      5.8589
C     -0.3880      6.1153      2.9272
C     -1.7001      6.6408      3.4340
H      4.4044      5.9978     -0.7820
H     -1.9473      3.8698      6.4651
C    -10.6820     13.6693      8.8387
C      0.4548      4.9426      3.6102
C      4.9658      3.7599      2.8293
H      1.4513      4.6506      8.1484
H     -4.6100      8.7744      8.4308
C      6.5827      3.8499     10.2640
H     -2.3631     12.2225      7.5059
C      2.0151      6.7785      8.8348
C     -1.9024      5.8336      5.8541
C      2.5471      0.3509      2.1592
C      0.7984      4.9713      5.9671
C      1.9758      6.4806      7.3095
C      2.2940      4.4554      0.1880
H     -1.6462      5.8173      0.8967
H      3.5304      2.0379      2.5680
H      4.4317      2.0852     -0.5839
H     -4.3361      5.8359      8.1822
H      7.1911      1.9662      9.0503
H      5.6322      1.1242      3.4525
C     -0.6326      9.0959      4.4606
C     -4.0610      7.3706      9.3397
H      4.2835      6.0814      0.8573
H     -4.5520      8.3885      3.1058
C     -4.5292     11.7601      7.3737
H     -2.8939      3.8651      2.4269
H     -4.6943      9.8466      5.4726
H     -6.8377     14.7107      8.8581
C     -0.1416      7.9995      7.3543
C      0.3793      3.5892      5.4421
O      8.6694      5.6419      4.4930
C     -1.6716      8.2877      5.3136
C     -6.6192     14.2022      7.0370
C      5.2333      2.0128      6.5504
C      3.2986      0.6437      6.1794
H      8.3691      7.1006      5.5901
H     -5.4185     14.5236      7.2111
H      5.8162      3.4505      7.7500
H      0.6480      8.9740      6.3480
H     18.9243     12.1824     17.9969
C      1.6988      5.0707      7.0802
H      0.1179      3.7310      1.8124
C      3.7379      5.1593      5.0484
C     -9.7654     15.6216      9.1036
H     21.8185      9.2910     14.2332
C      8.3887      7.4349     10.6439
H      3.7562      5.1786      8.4483
H     10.8322      6.7582     10.5622
H     -6.3920     13.4040      6.3958
C      3.7450      2.7101      4.6540
C     17.6602     10.0877     18.7960
C     -6.3999     12.5445      8.7772
C     -5.1406      9.7087      8.5870
C      5.6310      4.4450      8.1554
C     -7.0391     13.7458      8.3512
H     -0.3312      2.6266      9.7125
H      1.5692      3.7822     -0.4354
H     18.9424      9.5345     13.1021
H      9.6225      5.2834     -0.2113
H     -1.2646      2.5436      5.7891
C     14.5206      9.9874     13.8298
H    -10.6326     17.4720      9.6184
H     -3.2631      9.6302      3.1180
