263

C     19.9655      8.9717     14.2064
N     -1.6239     10.6410      1.5801
C      3.8468      1.5918      7.2135
C      2.2032      2.6909      1.5844
C      7.4766      4.8780      2.3142
C      7.1947      3.7283      3.0989
C      3.3881      3.7795      5.5427
C     15.9862      7.0129     19.5687
C      5.9444      1.8092      3.7065
C     -7.2012      8.3924      9.5581
C     13.7440      8.8872     13.7876
N     -0.3757      2.6119      6.2941
C      0.4453      6.1024      0.5415
O     -1.2807      2.8051      1.2296
C      3.2082      3.8624      6.8269
C     15.6815      6.0665     17.3680
C     16.3842     10.3094     16.5267
H    -11.7644     13.8218      9.4843
H     -3.8275      3.8831      5.2484
H     17.3831      6.6645     14.4796
C     16.9506      9.1003     16.1021
H     -9.0403      7.1989      9.0307
H     -6.5706      8.7708     10.4633
H      7.9578      3.5665      3.8627
H     12.9647      7.4041     10.7099
H     -1.4589      5.5474      6.9725
H      8.6338      4.3137     10.0657
C      2.8693      2.5756      7.5532
H      6.7235      0.8358      3.6106
O     13.8860     10.8081     14.9680
C     -4.7723     12.5910      8.1107
C      7.1835      5.9408      9.7050
H      2.6310      0.0567      6.6811
H      2.6691      6.3200      9.5704
C      5.8563      3.1722      3.1281
H      6.2004      4.7059      7.0460
H     -7.7366     11.0164      9.4861
H     -7.6268      6.7273      8.6881
C     17.0311     11.0669     17.7323
C     -2.8142      8.4720      4.9432
O      2.0335      8.4402      5.0582
C     -1.5194      7.9032      7.0289
C      8.6618      8.6267     12.0077
C     20.4682      8.0693     13.0716
C      6.5301      6.9838     -0.7243
H      5.0966      4.3551      1.5754
H     17.5723      9.8825     14.1759
H      1.9111     -1.3138      3.6978
H     -5.5257      6.8827      7.8172
C      8.1118      3.4576      9.5343
C      7.3331      6.5663     11.0299
C      8.0231      5.8606      3.5152
H      8.1382      7.4160      2.1841
C     -0.9986      6.4860      5.1026
H     16.0803      8.5346     21.2208
H      2.2291     -0.7217      2.1649
H     15.0138      7.1125     13.2941
C     -3.2836     11.6606      6.7431
C      6.2588      4.8196      9.3310
O      5.6404      2.7482     10.4695
C     15.9702      7.5608     18.0524
C      4.7483      5.3135     -0.2866
C     17.7222      9.0013     15.1238
H     -3.6685      7.5141      5.0273
H      8.2078      8.1823      3.8929
H     -9.7798     14.0091     10.3437
H     -5.8908     12.4182      9.6312
H      2.2625     -0.6600      5.1993
H     17.4445     13.0722     17.0424
C     -0.1406      3.4170      8.6575
C     13.4119      8.8091     12.3161
C      1.6557      1.6626      7.5731
C     -0.4284      6.4123      1.4434
H      5.9296      7.6450     -1.3482
H     -2.7514      2.4340      4.2099
C     10.0813      7.7374     12.7095
O     15.4919     10.3906     13.3830
C     -6.6930      8.6322      8.3813
C     16.3810      8.2747     20.2799
C     -9.5829     14.1481      9.3004
C      2.5280      1.5727      4.7985
H     -2.4586     11.0649      1.7399
H     -2.5000     10.2405     -0.5559
H     -7.0935     11.9158      6.8547
H     -9.5439     16.0186     11.0606
C      3.6958      3.2057      3.0606
H     -3.5906      9.0743      6.8610
C     -1.8480      8.4914      0.5252
C     11.0798      7.2069     11.7008
H     -1.6734     10.5960      5.8863
C      5.1898      2.2021      5.0713
H      4.1310      0.0622      5.5023
C    -10.5170     12.2674      8.5661
C     -8.0289     11.1246      8.3690
C     -2.1848      5.0375      3.3354
C     16.2738      9.6025     19.5282
C      2.2035      3.5068      2.7841
C     -7.9751      7.2055      9.7204
H     15.8972      8.8085     14.0264
H      2.6629      5.3768     -0.9347
O      5.5526      6.5170      6.4649
C      0.7763      8.0708      4.5698
H     -8.6163     10.1744      7.9402
C     -2.4369      8.7039      3.5509
C     -2.3088      7.5272      2.7610
H     -7.5450      8.3215      7.7220
C     -2.6864      7.8723      7.6307
H      2.4054      3.8450      5.0684
H     13.1692      9.3520     10.7480
H      4.3358      3.4958     -0.6572
H     -0.6908      4.2918      8.1975
C      3.2384      1.4426      1.5307
C     -0.1643      8.3690      2.0060
O      4.6977      3.8778      0.0462
C     -0.1668      3.2697      1.7425
C     -0.4755      3.9036      4.2958
C     -5.6890     10.4545      7.4693
H     -3.5996      7.6862      7.1106
H     15.5286     10.5282     19.7926
H      0.2644      6.6165     -0.3936
O      0.1405      9.7804      5.7116
C     -6.7543     11.4165      7.7380
C      0.5727      6.9600      6.7556
C     15.1498      7.9489     14.2068
H     15.7808      7.7759     16.1416
C      0.6561      7.5996      3.1079
H     -4.2954     13.1501      8.8407
C      2.1868      0.6271      3.6867
C      0.0126      2.2437      7.6469
C     -2.7099     10.7032      6.0629
C     -2.7841      3.3676      5.1855
C     17.6767     12.2589     17.6652
C     -9.5513     16.3922      9.9567
C      0.9703      2.4245      1.2282
C     -1.3374      7.5786      1.6046
C     -9.2266     12.3172      8.3111
N      2.2621     -0.5045      4.2406
C      3.8993      1.4864      0.2203
O     16.6742      5.7621     14.8499
C      9.2348      6.5992      0.0890
H     18.4990      9.6838     19.1912
H     -0.7471      1.4281      7.6933
C     -2.5701      4.8364      2.0022
C     -2.8900      8.0075      9.0790
H      7.6706      3.7243      8.4256
H      1.6331      0.9554      6.7456
H     -5.3623     10.2992      9.4891
C     -2.0127      9.7440      0.4948
H     -7.8391      6.6004     10.7369
H      1.6128      7.5486      9.0353
H     -0.6047      9.4007      4.0026
H     14.3804     10.6622     11.7950
H      3.3807      0.4967      0.0334
H      0.5026      3.8921      9.6214
C     15.0088      7.3395     15.5311
H      3.5034      2.3316     -0.4133
H     -0.7848     10.7451      2.1368
C     13.8276      9.7451     11.3977
H      5.6140      1.7374     10.6577
H     15.3185     10.3421     16.8680
C      4.3374      8.2349      4.3869
C      7.8458      7.2859      3.4199
C     21.5079      9.2337     14.7042
C     18.8765      8.2496     14.8580
C      4.1995      6.0572      6.3394
C      1.5934      4.8107      2.4683
C      5.7986      6.1370      0.2497
C      5.7595      7.6875      4.4978
C      8.0290      6.8911      0.9786
C      4.3165      4.9358      7.5118
C      1.4340      5.1549      0.7231
H     -2.6475      6.2015      6.1461
C      6.4195      6.5563      5.3202
H      9.8764      5.8865      0.2183
H      0.5343      1.3535      0.6370
C      7.0017      5.8262      1.2241
H     -0.8388      3.0170      3.8473
O      7.5799      6.8885      6.4399
H      8.3022      9.7654     12.1760
H     21.6463     10.3585     14.5740
H      1.7478      2.9680      3.6818
H     -0.6813      9.1116      2.4961
H      2.9368      3.6563     -0.0186
H      4.8154      5.2431      4.6131
C     12.3661      7.6189     11.7315
H      6.5565      5.5175      5.0434
C     15.5907      6.0405     15.7970
H      1.0232      5.5508      8.9486
C     -1.8925      4.4058      4.6819
C      0.4689      6.6912      5.2235
H     17.2815      7.9413     20.0039
H      1.5186      2.0664      5.2710
C      1.3310      5.4577      4.9168
H    -10.7794     11.3139      9.0009
H      1.4696      0.7097      1.7509
H     16.5535     10.9183     15.7711
H      0.2522      7.8668      8.6850
C     -4.8892      6.6101      8.8384
C     -8.6001     13.7227      8.3054
C      6.4766      7.8270      3.2177
C     -3.5612      9.4865      5.7078
C     -0.2258      6.1302      2.9571
C     -1.6072      6.3413      3.6600
H      4.3257      5.3257     -1.2360
H     -2.2087      3.1873      6.1049
C    -10.9702     13.7766      8.8532
C      0.6243      5.0320      3.7001
C      4.7977      3.6627      2.3779
H      1.7786      4.3159      8.1132
C      6.7141      3.8211     10.4113
H     -2.4031     12.2897      7.2738
H     -6.0031      9.7291      6.5141
C      1.8034      6.4651      8.8470
C     -1.8291      5.6274      5.8999
C      2.1811      0.4378      2.3038
C      0.9110      4.6541      5.9784
C      1.9873      6.2556      7.4223
C      2.1464      4.4260     -0.2711
H      3.6383      1.9988      2.3544
H      4.9293      1.8939      0.4010
H     -4.5169      6.1099      8.0264
H      8.6774      2.6419      9.4349
H      5.3320      1.2030      3.3718
C     -0.3656      8.8803      4.9303
C     -4.1646      7.7911      9.6391
H      3.9302      5.7504      0.1833
H     21.8631      8.8141     15.6297
C     -4.4384     11.4162      7.5756
H     -3.4999      4.3697      2.5135
H     -4.4804      9.6167      4.9966
H     -6.7385     14.3043      9.4328
C     -0.2499      7.6867      7.6289
C      0.1024      3.5655      5.5828
O      8.6537      5.3787      4.3529
C     -1.4375      7.8742      5.4695
C     -6.3474     14.3373      7.2900
C      5.2010      2.0923      6.5844
C      3.2206      0.8035      5.9333
H      8.2796      7.3768      6.1607
H     -5.6505     15.1574      7.4820
H      1.2553      9.6981      5.7284
H     18.7842     11.8103     17.8763
C      1.8091      4.7921      7.0982
H     -0.2801      4.1341      2.1730
C      3.8722      5.2781      5.1348
C     -9.7481     15.4771      9.1471
H     22.1823      9.2149     13.9742
C      8.1503      7.7718     10.8831
H      3.6791      5.5261      8.4381
H     11.1486      7.1137     10.6748
H     -6.1822     13.2592      6.6449
C      3.8274      2.6735      4.6448
C     17.4859     10.1525     18.8279
C     -6.2738     12.4738      8.5440
C     -5.5826      9.5851      8.6354
C      5.6352      4.4842      8.0034
C     -7.1999     13.7993      8.5163
H      1.2288      4.2107     -1.0345
H     19.7638     10.1408     14.2779
H     -0.7555      1.6028      5.8719
C     14.3862     10.0526     14.1261
H     -9.2749     17.4134     10.2067
H     -2.5377      9.6023      2.9510
