263

C      7.0404      9.2333     13.8373
N     -1.8671     10.6983      1.2640
C      4.0002      1.5943      7.1611
C      1.8715      2.8569      1.7920
C      7.6287      4.8797      1.9517
H     -3.7559      5.8356      2.2100
C      7.3485      3.3047      2.3857
C      3.5752      3.7516      5.6955
C      3.2103      7.0936     19.3369
C      5.9418      1.7386      3.7923
C      5.1813     -4.4175      9.8704
C      0.7312      8.6926     13.8697
N     -0.4407      3.1012      6.3859
C      0.2553      5.9749      0.7229
O     -1.5581      2.7240      1.4753
C      3.2807      4.0328      7.1001
C      2.7995      6.0952     17.3525
C      3.7236     10.2841     16.3832
H      0.9984      0.2200      9.0658
H     -3.8391      3.6857      4.4418
H      4.0539      6.8077     16.1032
C      4.3164      9.0277     16.0072
H      4.4243     -5.3926     11.1028
H      5.0802     -3.6141     10.6269
H      8.1840      3.0303      2.9306
H     -0.2867      7.2517     10.8117
H     -0.7427      4.9946      6.6670
H     -4.1137      2.9519     10.1918
C      2.6109      2.9474      7.7711
H      6.9047      1.3180      4.1662
O      1.0666     11.1397     14.6989
C      8.0222     -0.3626      8.6253
C     -5.9402      6.0744      9.7752
H      2.2637      0.5633      6.8490
H      2.8582      6.7712      9.0959
C      6.1808      2.9724      2.8029
H      6.3431      4.8858      7.2646
H      4.8886     -2.5900      9.3065
H      4.2100     -6.3884      9.5045
C      4.5067     10.8526     17.5910
C     -3.0042      8.1795      5.1380
O      1.9837      8.5734      4.6858
C     -1.5748      8.1127      7.1011
C     -3.9442      8.3136     12.0550
C      7.4519      8.0359     12.9701
C      6.5660      7.3690     -0.7823
H      5.3838      4.6558      2.3116
H      4.7561      9.8188     13.8373
H      1.8478     -1.3436      3.3599
H     -4.5337      6.5487      7.7948
H      2.1281     11.3778     14.6990
C     -5.0134      3.2352      9.6709
C     -5.7546      6.6814     11.0156
C      7.4722      5.6622      3.1544
H      8.2301      7.6631      1.8381
C     -1.1275      6.7809      5.3296
H      1.5210     -0.0032      2.1980
H      2.4407      6.7919     13.7868
C      9.7137     -1.3902      7.0655
C     -6.8517      4.8610      9.4687
O     -7.1181      2.9568     10.4312
C      3.0335      7.6508     17.8557
C      4.5845      5.7356     -0.0954
C      4.9385      9.0201     14.7145
H     -3.5409      7.1890      4.9847
H      8.6851      7.8318      3.4952
H      3.5967      1.3262     10.3458
H      6.3676     -0.2769     10.0479
H      4.5153     12.8432     16.7274
C     -0.0694      3.5535      8.7169
C      0.1785      8.3821     12.5471
C      1.6128      2.0220      7.4400
H     -1.8016      7.4230      9.6471
C     -0.8625      6.3566      1.6029
H      6.0175      7.8695     -1.7332
H     -2.2730      2.7665      4.1757
C     -2.9423      7.5777     12.6815
O      2.5689     10.3240     13.2609
C      6.3262     -4.3895      9.0335
C      3.8087      8.2734     20.3968
C      2.9655      1.2080      9.4241
C      2.9004      1.2078      4.8012
H     -1.5675     11.6429      1.0927
H     -2.2845     10.3423     -0.6924
H      5.9219     -0.6912      6.9545
H      3.7890      2.9379     10.8687
C      3.6687      3.2784      3.0715
H     -4.4857      9.2750      6.3419
C     -2.1845      8.5075      0.6757
C     -1.8072      7.2533     11.7632
H     10.1501     -3.5267      7.2467
C      5.2523      2.2033      4.9525
C      2.6253     -0.7078      8.3536
C      4.6403     -1.7825      8.3154
C     -2.3931      5.5492      3.6518
C      3.8408      9.2506     19.4312
C      2.1730      3.6244      3.0171
C      4.6072     -5.5399     10.1055
H      3.2681      8.2751     14.2456
H      2.8598      5.2566     -0.3361
O      5.5370      6.5176      6.5959
C      0.6995      7.9788      4.5045
H      4.0285     -2.3941      7.5168
C     -2.8570      8.6154      3.5519
C     -2.0809      7.7453      3.0256
H      6.1247     -5.5475      8.4528
C     -2.7886      8.0729      7.7491
H      2.4150      3.6920      5.5021
H      1.3013      8.8540     10.7529
H     -1.0445      3.8040      9.2772
C      2.8941      1.8455      1.4600
C     -0.1155      8.6549      2.0933
O     -5.8312      4.3500     11.5774
C     -0.6383      3.4932      1.5753
C     -0.1961      4.0195      4.1570
C      7.3795     -2.5538      7.4456
H     -3.3184      7.5943      6.9421
H      2.9512      9.2081     18.7685
H     -0.0441      6.3137     -0.2377
O      0.1629      9.7066      5.9658
C      6.0729     -1.4234      7.7514
C      0.8009      7.3533      6.7089
C      2.0003      7.7567     14.1398
H      2.8051      8.0481     15.8068
C      0.6849      7.6431      3.1421
H      8.5002     -1.0846      9.2241
C      2.4775      0.1730      3.6563
C      0.0601      2.4224      7.5781
C     10.6050     -2.4577      6.5169
C     -2.7159      3.5423      4.7348
C      4.6154     12.2008     17.6683
C      3.3919      3.5475     10.0838
C      0.6117      2.7468      1.3221
C     -1.4414      7.9659      1.7102
C      4.0072     -0.5655      8.5266
N      2.3645     -0.8673      4.1610
C      3.6485      1.3544      0.3132
O      4.0129      6.1426     15.2120
C      9.2795      6.3404      0.2827
H      5.7105      9.1905     18.6714
H     -0.6270      1.3178      7.6607
C     -3.1127      4.9932      2.6325
C     -2.8197      7.7408      9.0991
H     -4.8072      4.0421      9.1457
H      1.4643      1.6447      6.2586
H      7.2336      5.7021     -0.0691
H      7.6109     -3.1341      9.6418
C     -2.0707      9.7736      0.1114
H      1.8493      7.7750      9.4113
H     -0.9891      9.8664      4.7069
H      1.8363      9.6490     11.7065
H      3.1512      0.5551      0.0434
H      0.6831      4.3662      8.3885
C      1.9813      7.3690     15.4851
H      3.7906      2.1953     -0.3338
H     -2.6462     10.5682      1.8991
C      0.9333      9.2041     11.6479
H      2.6421     10.1743     16.8272
C      4.4101      8.1119      4.0992
C      7.8079      7.3744      2.9279
C      8.2891      9.9289     14.4628
C      6.2219      8.5526     14.9479
C      4.2351      5.9126      6.5204
C      1.5902      4.9889      2.5910
C      5.8922      6.2451      0.0980
C      5.7440      7.4496      4.2676
C      8.1561      6.6848      0.8190
C      4.2342      4.9663      7.7027
C      1.2586      5.1422      1.1759
H     -2.7298      5.6102      6.1873
C      6.2568      6.5993      5.4161
H      9.9414      5.4280      0.3994
H      0.4623      2.1618      0.3990
C      7.0328      5.7102      1.0026
H     -0.7937      3.1960      3.2659
O      7.6928      7.1547      5.4936
H     -3.5470      9.2178     11.8077
H      7.9910     10.9420     14.4793
H      1.7757      3.3487      3.9314
H     -0.1883      9.8854      2.3380
H      2.7346      3.6184      0.0282
C     -0.5675      7.5331     11.8110
C      2.6279      6.0447     15.9289
H      1.4266      5.8889      9.0150
C     -1.6812      4.7624      4.5927
C      0.4126      6.8284      5.3850
H      5.0389      8.5116     20.6197
C      1.3503      5.6894      4.8323
H      2.1988     -1.6947      8.1740
H      1.3051      1.1184      2.9399
H      3.2518     10.8139     15.5119
H     -0.2191      7.7958      8.9760
C     -4.8267      6.3267      8.9432
C      4.4465      0.8372      8.3247
C      6.4725      7.8039      3.1422
C     -3.7931      9.3160      5.5400
C     -0.3450      6.1877      3.1154
C     -1.4973      6.6841      3.8576
H      3.7852      6.4534     -0.2915
H     -2.5568      3.1899      5.7006
C      1.9238      0.5529      8.7728
C      0.5160      5.1749      3.4438
C      4.8902      3.6531      2.7141
H      1.1356      4.4487      7.4789
H      7.6192     -4.5573      8.0556
C     -6.0770      3.7945     10.3481
H     10.2452     -0.3998      7.1585
H      6.7533     -2.9372      6.6223
C      1.8971      6.8728      8.6282
C     -1.6670      5.4544      6.0100
C      2.2150      0.7076      2.3559
C      1.2170      4.7756      5.8079
C      1.8296      6.5712      7.2240
C      2.2812      4.5333      0.1007
H     -1.9879      5.6550      1.6237
H      3.5991      2.0034      2.2653
H     -4.0770      5.4375      8.9645
H     -5.5154      2.5136      8.8439
H     11.5124     -1.6977      6.3503
H      5.3035      1.0670      3.1138
C     -0.4405      9.0038      4.9640
C     -3.9370      7.4690      9.7026
H      4.5798      4.6330     -0.1619
H      8.4564      9.0563     15.1905
C      8.3573     -1.4321      7.6233
H     -2.8322      4.0712      2.1709
H     -3.9367     10.3230      4.9460
C     -0.4343      7.5356      7.7911
C      0.3406      3.6765      5.4420
O      7.8283      5.2783      4.2212
C     -1.5200      8.1284      5.5560
C      6.3968      1.6400      6.9966
C      5.2205      1.7990      6.2708
C      3.2091      0.7184      6.2554
H      7.7704      7.2685      6.4946
H      6.6894      2.6554      6.9020
H      5.6241      3.4540      7.9138
H      0.4666     10.3659      5.3379
H      5.4857     12.5195     18.1350
H      1.3389      8.3564      6.4846
C      1.8876      5.0394      7.0441
H     -0.9163      4.7197      2.1139
C      4.0730      5.2394      5.2497
C      2.8795      2.6609      9.1147
H      8.9775      9.5380     13.8970
C     -4.3746      7.5868     10.9041
H      3.6574      5.5267      8.6887
H     -1.9381      6.2797     11.0416
H      6.9476      0.9150      6.4044
C      3.8472      2.6339      4.6732
C      4.7683      9.6921     18.4097
C      6.5485     -0.2229      8.8610
C      7.4934     -3.6425      8.7060
C      5.6590      4.5430      8.0262
C      5.9562      1.0601      8.2753
H      0.5030      2.8813      9.2632
H      1.6113      4.1899     -0.7277
H      6.4962     10.0975     13.5608
H     -5.0429      5.1395     11.1334
H     -1.1352      2.5170      5.9954
C      1.5120     10.0087     13.7479
H      2.7977      4.5804     10.2392
H     -3.3266      9.4771      3.1243
