262

C     19.6764      8.3462     13.4125
N     -2.8343     10.4084      1.9523
C      3.7825      1.4123      7.4075
C      2.2431      2.7666      2.0348
C      7.4867      4.3183      1.9588
H     -2.6453      6.6009      2.7898
C      7.4733      2.9240      2.3458
C      3.2871      3.7995      5.5262
C     16.1681      7.2116     19.3385
C      6.3172      1.9283      4.4141
C     -6.7338      8.2818      8.6529
C     13.4977      8.6993     13.5237
N      0.3726      2.6515      6.3051
C      0.4101      6.0136      0.6227
O     -1.5064      2.6314      1.9940
C      3.5070      3.7616      6.8473
H     13.9908      7.2643     11.6022
C     15.5865      6.4648     17.3838
C     16.8694     10.3328     15.7023
H     -1.5736      2.3601      5.5254
H     17.0849      5.5808     14.7121
C     16.8840      8.9414     15.5889
H     -7.8705      6.9346     10.5503
H      7.9842      1.9552      9.4617
H    -10.1886     16.1514     10.8809
H     -1.3617      6.0466      7.1817
H     -7.0284     14.6030      9.4207
C      2.9100      2.7970      7.7798
H      7.3329      1.4461      4.7823
O     13.7307     10.7370     15.2850
C     -5.4239     12.1129      9.0184
C      6.4013      5.9973      9.7466
H      2.4924     -0.5203      6.0245
H      4.0096      5.6768      8.2789
C      6.3609      2.6455      3.0143
H      5.8463      3.6843      7.4556
H     -9.1699     11.5525      9.5927
H      2.0329      8.2486      8.8205
C     17.2729     10.7589     17.1524
C     -2.7790      8.8863      5.1554
O      2.0138      8.8589      4.6523
C     -1.2665      8.2487      7.1319
C      8.9162      7.6330     11.9510
C     20.8316      7.3180     12.8702
C      6.8292      6.6605     -1.0156
H      5.3380      3.6589      1.5089
H     17.6993      9.5423     13.4576
H      2.0784     -1.3224      5.2558
H     -5.2361      6.2074      8.4322
C      7.7132      2.8268      8.6695
H      0.6536      1.4531      1.8294
C      7.3772      6.1456     10.7009
C      7.8852      5.3364      3.0351
H      7.6336      6.8207      1.5238
C     -1.0167      6.9511      5.4352
H     16.0207      8.8162     20.7421
H     17.2250     10.9463     14.8882
H      2.4491      5.5659      0.8667
C     -3.5372     11.1586      7.8062
C      6.0944      4.6742      9.2341
C     15.8606      7.7672     17.6437
C      5.0079      5.2238     -0.1019
C     17.5096      8.6603     14.3949
H     -3.4623      7.9410      5.5114
H      8.0746      7.5416      2.8867
H     -9.4661     14.1004     10.7888
H     -1.4750      1.8079      1.6474
H     18.2695     12.7695     18.1143
C     -0.2733      3.7167      8.3964
H     19.1455     10.1008     14.4175
C     13.0515      9.0563     12.0716
C      1.7478      2.1533      8.1510
H     10.8524      7.0623     10.4373
C     -0.8060      6.0087      1.7364
H      5.9815      7.2711     -1.0589
H     19.2125      9.1581     12.5282
C     10.0750      7.1448     12.3564
O     15.0047     10.5396     13.2285
C     -5.6584      8.2065      7.7622
C     16.6828      8.5165     19.8045
C     -9.6908     14.4186      9.7986
C      2.6397      0.9487      4.7795
H     -2.2974     10.5025      2.7472
H     -3.8962     10.9685      2.1231
H     -6.4791     13.0276      6.7079
H      3.1884      6.9790      9.5234
C      4.0073      3.3191      3.3104
C     -2.1939      7.9547      0.5805
C     11.3708      7.0835     11.4300
C      5.2551      2.2087      5.3401
C    -10.9790     12.4705      8.5540
C     -8.7101     11.4442      7.8410
C     -2.1551      5.0573      4.1609
C     16.4839      9.6039     19.0185
C      2.8370      3.9245      2.4804
C     -7.4578      7.0483      9.4047
H    -11.3204     11.7843      9.3223
H     15.3361      7.0876     13.2336
H      8.1558      3.6097      3.9597
H      0.6477      3.8968     -0.1643
O      5.5260      6.7012      6.4004
C      0.6582      8.3739      4.3621
H     -9.0953     11.2725      6.7293
C     -2.8335      8.7208      3.7314
C     -2.2445      7.4013      3.0943
H     -4.8285      9.9670      8.6507
H      8.4434      2.7223      3.0185
C     -2.4392      8.7307      7.7167
H      2.2752      4.3762      5.0101
H      4.1460      3.3154     -0.1451
H     -0.7637      3.2684      9.4538
C      2.9773      1.3099      1.9373
C     -0.2684      8.3651      1.8925
O      4.0790      4.2986      0.3414
O      7.3063      3.8466     10.8050
C     -0.2960      3.2747      1.5529
C      0.2122      3.6737      4.1494
C     -6.0390     10.7989      7.1737
H     15.5808     10.0296     19.4053
H     -0.3019     10.3003      4.0812
H     13.3422      7.9896     10.2798
O      0.4867     10.3965      6.0206
C     -7.2607     11.0750      8.2417
C      1.0388      7.3858      6.8334
C     14.3295      7.3280     13.7775
C      0.5325      7.6816      3.0604
H     -5.0700     13.0723      8.5247
C      2.4240     -0.1706      3.5977
C      0.5856      2.7092      7.6856
C     -2.8545     11.0398      6.6897
C     -2.1058      3.1073      6.2563
C     17.6701     12.2438     17.3410
C     -9.7836     16.9845     10.1323
C      0.7878      2.4661      1.8837
C     -1.3904      7.4919      1.8094
C     -9.4790     12.2645      8.6946
N      2.2313     -1.3765      4.2561
C      3.6421      1.2714      0.7229
O     16.8634      6.1772     15.4146
C      9.9507      5.9778      0.2803
H     -7.0202      9.1997      5.8905
C     -2.8099      4.5966      3.0309
C     -2.9939      8.4767      9.1026
H      6.5958      2.5000      8.5676
H      1.9236      1.3445      6.7888
H     -5.0600      9.0403      6.2202
C     -2.7577      9.4463      1.0113
H     -7.9984      6.7006      8.5766
H      1.4869      6.4428      9.1251
H     -1.0813      9.1407      2.4310
H     14.8381      9.4421     10.6804
H      3.6973     -0.0567      0.7527
C     14.8672      7.3848     15.1722
H      3.2399      1.7946     -0.2395
C     13.7997     10.0423     11.2773
H      8.0979      5.4094     10.8678
H      1.7597     -2.2497      4.1611
C      4.2127      8.2735      4.1340
C      7.5111      6.6727      2.6504
C     20.2292      9.5682     14.0628
C     18.7444      7.9726     14.4424
C      4.2466      6.1171      6.2141
C      1.8185      4.9969      2.7113
C      6.5433      5.4713      0.0310
C      5.2891      7.2399      4.0256
C      8.5543      6.1369      0.6236
H     14.4134     10.8368     11.6762
C      4.3516      4.8745      7.5001
C      1.4207      5.1950      1.0415
C      6.3090      7.0371      5.0462
H     -3.0824      5.4130      2.5888
C      7.5956      4.9582      0.6781
O      7.4390      7.2767      5.0165
H      8.8481      8.6054     11.7409
H     20.7347      9.3295     14.8870
H      0.9374      3.0049      3.6801
H      2.4479      4.4407     -0.7333
H      4.5675      5.1868      4.1448
C     13.0658      7.6963     11.4197
H      5.9130      5.7271      7.4072
C     15.5436      6.2599     15.8817
C     -1.8538      4.5029      5.6283
C      0.4449      7.1837      5.4790
H     -7.8058      8.7224      8.1874
H      3.6747      1.0707      4.2807
C      1.2858      6.0259      5.0297
H    -11.4994     12.1281      7.4123
H      3.0432     -0.8300      1.6156
H     13.4371     10.0726     15.9312
H     -2.0612      8.1762      9.6531
C     -4.8286      7.1281      8.2772
C     -8.8143     13.5285      8.6943
C      6.0663      7.1916      2.6813
C     -3.1315     10.4622      5.3612
C     -0.1544      6.3224      3.0963
C     -1.3643      6.5619      3.9903
H     -3.2058     11.6566      8.6733
H      2.3052      3.2481     -0.1214
H      4.9093      5.2700     -1.4182
H     -3.0261      2.7252      6.1539
C    -11.2098     13.9652      9.1221
H     -1.7846     11.4161      7.1397
C      0.7765      5.1126      3.6800
C      5.2949      3.3388      2.6303
H      2.0415      4.7591      8.2001
H     17.5836      8.7955     19.9859
C      7.2016      3.8231      9.5447
H     -5.8905     11.1789      6.1137
C      2.1445      7.1837      8.8230
C     -1.4380      5.7641      6.1753
C      2.2955      0.0871      2.1916
C      1.2375      4.8732      6.0247
C      2.1173      6.7437      7.3026
C      1.6629      3.9867      0.0509
H     -1.1990      4.8243      1.7218
H     -3.5387      9.4916      9.6857
H      4.6245      1.6423      0.7965
H     -4.6519      6.9862      7.1569
H      8.1948      3.1004      7.6760
H     -2.2849     10.8562      4.8672
H      5.9475      0.9186      4.2686
C     -0.2536      9.4735      5.0145
C     -3.9238      7.5446      9.3238
H      4.6966      6.3252     -0.1148
H     -3.9066      8.8841      3.5240
C     -4.9255     10.9245      8.1538
H     -3.0254      3.5469      2.8345
H     -3.7822     10.9938      4.3980
C     -0.0719      7.7262      7.6888
C      0.4462      3.8132      5.6949
O      7.9073      4.8822      4.1375
C     -1.4447      8.3748      5.6389
C     -6.6888     13.7958      7.3423
C      5.1839      1.5093      6.5510
C      2.6102      0.6900      6.2201
H     -5.5970     14.2788      7.1107
H     -8.1294     15.8380      9.1947
H     -4.5379     12.4601      9.8060
H     -0.3983     10.8116      5.5390
H     -0.0237      7.1522      8.5526
C      1.6765      5.3061      7.2748
H     -0.1418      4.3390      1.8464
C      3.8944      5.3587      4.9252
C     -9.3484     15.8018      9.3094
H     20.9723     10.1884     13.4075
H     -0.0016      5.7979     -0.3512
C      8.5586      7.1424     10.5483
H     -8.9340     17.1649     10.5887
H     11.7013      6.0070     11.6052
C      3.8998      2.8245      4.6332
C     17.4113      9.6349     17.9830
C     -6.9870     12.2642      9.3575
C     -5.9816      9.3188      6.6000
C      5.6330      4.7090      7.9213
C     -7.2537     13.6903      8.8685
H      0.4024      4.7129      7.6959
H     -3.5593      9.5491      0.2476
H     -7.2408     12.0165     10.1970
H     10.4827      5.0676      0.2532
C     14.2264      9.8496     14.0348
H    -10.5851     17.7870      9.8100
H     -2.2767      9.8112      3.6413
262

C     19.8239     -4.6213      0.5862
N     -2.7350     10.3405      2.0381
C      3.8327      1.3947      7.2085
C      2.2340      2.6651      2.2141
C      7.5482      4.3669      1.8747
H      9.4726     -6.1538      3.2414
C      7.4745      2.9517      2.2398
C      3.5587      3.7940      5.5423
C     16.1768     -5.5728      6.3642
C      6.3488      1.8448      4.3834
C     -6.6013      8.2248     -3.9913
C     13.5018     -4.2609      0.9439
N      0.3560      2.6893     -6.7305
C      0.4808      6.1020      0.7373
O     -1.5474      2.5678      1.9231
C      3.7353      3.5935      6.9269
H     13.0080     -5.9830     -0.9681
C     15.5758     -6.7298      4.3757
C     16.7588     -2.4484      2.9758
H     11.3964    -10.6311      5.7343
H     16.9525     -7.6290      2.0336
C     16.8271     -3.9135      2.8381
H     -8.1261      6.8606     -2.7971
H     -4.8389      1.6178     -3.7313
H      2.1438      3.4533     10.6743
H     11.7378     -7.1728      7.3107
H      5.6570      1.3368      9.1438
C      3.0607      2.7929      7.9561
H      7.2421      1.5950      4.7866
O     13.5685     -2.1715      2.3392
C      7.5932     -0.8271      8.9509
C     -6.6661      6.0236     -3.1947
H      2.4248     -0.3561      6.4252
H      3.3268      5.4062      8.2110
C      6.5025      2.8133      3.2968
H     -7.1330      3.6644     -5.5178
H      3.5722     -0.6964      9.8807
H      2.1053      8.2919     -4.1848
C     17.3632     -2.1976      4.2167
C     10.3030     -4.1473      5.1538
O     15.0308     -3.9748      4.4468
C     -1.3100      8.4368     -5.5226
C     -4.1431      7.8710     -1.0546
C     20.7488     -5.6545      0.0193
C     -6.1649      6.5429     -0.7952
H      5.3033      3.0204      1.3072
H      1.5466     -1.2359      4.9833
H     -5.5081      6.4696     -4.2844
C     -5.0459      2.7560     -4.3969
H      0.5858      1.5064      1.3722
C     -5.4582      6.1004     -2.2261
C      7.5852      5.3585      2.9363
H      7.6814      6.7689      1.5596
C     12.0179     -5.9979      5.3296
H     16.4804     -4.2358      7.8202
H     16.8760     -2.0184      2.0158
H      2.5245      5.9919      0.8563
C      9.2684     -1.5710      7.6563
C     -6.8190      4.6121     -3.7707
C     15.8713     -5.1983      4.9581
C     -7.8614      5.2409      0.2155
C     17.4917     -4.2202      1.5053
H      9.4770     -4.8939      5.5481
H      8.2104      7.6374      2.9811
H      3.3697      1.0317     10.5473
H     -1.5009      1.6403      1.6157
H     18.4146     -0.7199      5.2034
C     -0.4279      3.7632     -4.8643
H     19.5265     -2.7915      1.3632
C     13.2059     -3.9177     -0.9166
C      1.8421      2.1151      7.9841
H     -2.1983      7.0537     -2.3531
C     -0.7258      6.2132      1.6216
H     -7.1263      7.2429     -1.1191
H     19.1884     -3.7446      0.1451
C     -2.8473      7.2322     -0.4360
O     14.9503     -2.4837      0.4044
C     -5.7034      8.2639     -5.2597
C     16.9305     -4.3553      6.8864
C      3.3093      1.4925      9.6310
C      2.6527      1.1235      4.7182
H     -1.8137     10.7018      2.3495
H     -3.7379     11.0741      2.5783
H      6.1230     -0.1013      6.6419
C      4.0783      3.3750      3.2292
C     -2.1665      8.1773      0.6644
C     -1.8140      7.2099     -1.3803
C      5.0929      2.2125      5.1738
C      1.9516     -0.3897      8.6078
C      4.1398     -1.6695      8.0550
C     10.7223     -7.6241      4.1852
C     16.3734     -3.2482      6.1230
C      2.6852      3.7411      2.8407
C     -7.3895      7.0476     -3.9086
H      1.6693     -1.2578      9.0546
H     15.1154     -5.8532      0.2708
H      8.0488      3.8653      4.3766
H      0.7677      4.0885     -0.8077
O      5.5199      6.6444      6.2245
C     13.7224     -4.5239      4.6063
H      3.2058     -1.7316      7.3886
C     10.2900     -4.1341      3.6478
C     10.5821     -5.6619      3.0624
H      8.1490     -2.5184      9.0679
H      8.1773      2.2252      2.6517
C     -2.4988      8.7142     -4.9030
H     -9.1839      3.8214     -0.6236
H     -0.2222      3.8558     -3.7060
C      3.0633      1.3792      1.9834
C     12.5618     -4.3323      2.0616
O     -8.9130      4.3647      0.4015
O     -5.6035      3.6324     -2.2547
C     -0.2834      3.2011      1.6066
C      0.1243      3.7083     -8.8503
C     -6.1119     10.6876     -5.6324
H     15.4601     -2.5986      6.0803
H     -0.7363     10.0167     -8.6159
H     13.6000     -4.7076     -2.8117
O      0.4474     10.2144     -6.7795
C      5.7130     -1.7666      8.1510
C      0.7482      7.5311     -6.1043
C     14.2501     -5.6669      0.8335
H     15.4625     -4.4872      2.3913
C     13.4720     -5.0572      3.0583
H      7.7604     -0.0266      8.3800
C      2.3690     -0.1177      3.7311
C      0.4124      2.7621     -5.4438
C     10.0495     -1.8541      6.5898
C     10.9677     -9.7798      6.1360
C     17.5191     -0.8069      4.6762
C      2.9644      3.8942     10.3113
C      0.8075      2.4611      1.8876
C     -1.4065      7.4310      1.5199
C      3.3982     -0.6215      8.8107
N      2.3758     -1.3157      4.3247
C      3.6625      1.4228      0.4565
O     17.1387     -6.7927      2.4626
C     -3.0534      5.9145      0.7798
H     -7.1409      9.0589     -6.7225
C     10.1962     -8.2724      3.1676
C     -3.1226      8.4245     -3.6643
H     -5.8802      2.3349     -4.7722
H      1.8617      1.3897      6.8897
H     -5.3176      9.1457     -6.9248
C     -2.8462      9.4558      0.9550
H     -8.0457      6.7847     -4.6222
H      1.1405      6.8204     -3.7489
H     12.0521     -3.5124      2.2490
H     13.8936     -3.0142     -2.6911
H      3.7651      0.3957     -0.1549
C     14.8662     -5.5014      2.3327
H      3.6367      2.3545     -0.2022
C     13.8265     -2.9870     -1.6347
H     -4.9029      5.1384     -2.3106
H      1.7569     -1.9635      3.5720
C      4.2686      8.4463      4.1167
C      7.4948      6.7869      2.6030
C     20.3793     -3.2344      1.0784
C     18.8151     -4.8101      1.5821
C      4.2172      6.0943      6.2422
C      2.0414      5.0167      2.5290
C     -6.4465      5.4648      0.2060
C      5.4094      7.5273      4.0465
C     -4.4349      5.9014      0.4676
H     14.0527     -2.0238     -1.0574
C      4.1286      5.0297      7.5011
C      1.7470      5.1129      1.0381
H     -3.2605      9.2567     -5.4256
C      6.1894      7.1851      5.1805
H     10.5163     -7.8913      2.2716
C     -5.2623      4.7635      0.6772
H     -0.7856      3.3133     -9.1800
O      7.5054      7.1874      5.1007
H     -4.0483      8.8784     -1.3117
H     21.1281     -3.4451      1.8254
H      0.4886      2.6624     -9.2443
H      2.4040      4.7218     -0.9094
H      4.7546      5.0453      4.5347
C     13.0266     -5.0902     -1.6550
H     -6.9941      5.7915     -5.6164
C     15.5039     -6.6079      2.8946
C     10.9654     -8.4330      5.5701
C     13.5906     -5.7861      5.3902
H     -7.2031      9.4055     -3.8213
H      3.7171      1.3574      4.3618
C      1.3597      5.8673     -7.9313
H      1.4754     -0.6797      7.6051
H     12.6799     -2.6733      2.0614
H     -2.1861      8.2803     -3.2929
C     -4.8582      7.1118     -4.8784
C      4.1427      0.7258      8.6190
C      6.1455      7.3328      2.9073
C      9.8698     -2.5644      5.3850
C     -0.1267      6.3417     -9.8352
C     11.6357     -6.4989      3.9495
H      9.6162     -1.5353      8.6725
H      2.4446      3.2772      0.2598
H     -8.2162      5.9635     -0.6178
H     10.4966    -10.3600      6.7819
C      2.1223      1.0520      9.0681
H     11.0121     -2.0393      6.8170
C      0.8141      5.0033     -9.2646
C      5.2566      3.2303      2.5869
H      1.0203      5.4005     -4.9568
H     17.6827     -4.5398      7.5237
C     -5.7385      3.8270     -3.4319
H     -5.9113     11.0169     -6.6898
C      2.0370      7.1055     -4.2175
C     11.4278     -7.3990      6.3127
C      2.2620     -0.0053      2.2362
C      1.1647      4.8199     -7.0018
C      2.0477      6.7334     -5.6704
C      1.7344      4.0917     -0.0316
H     -1.6467      5.3423      1.4828
H      3.9533      1.3094      2.7052
H     -3.3151      9.7101     -3.4876
H      4.5854      1.3986      0.8684
H     -3.7508      7.0587     -5.7131
H     -4.3812      3.4494     -5.0565
H     10.4935     -2.0678      4.6679
H      6.4440      1.0451      3.5831
C     -0.1710      9.2940     -7.8237
C     -3.9090      7.2347     -3.5939
H     -7.9426      6.0853      0.7071
H      9.3501     -4.1574      3.1970
C      7.9392     -1.9336      8.1508
H      9.4675     -9.1700      2.7952
H      9.0966     -2.3587      4.8640
C     -0.0524      7.8587     -5.0941
C      0.4037      3.7096     -7.5539
O      7.8885      4.8304      4.2609
C     -1.2539      8.4978     -7.0239
C      6.1417      0.8863      6.9952
C      5.0572      1.8401      6.5060
C      2.7960      0.7808      6.2801
H      7.0183      1.2168      6.6029
H      4.8662      2.9819      9.4879
H      7.8597     -0.6569      9.9923
H     -0.3907     10.6961     -6.7355
H      0.0898      7.2342     -4.1591
C      1.6019      5.4557     -5.8485
H     -0.4303      4.2409      1.7862
C      3.8542      5.3033      4.9699
C      3.6024      2.8436      9.3470
H     20.8147     -2.6246      0.1313
H      0.0393      6.1490     -0.1540
C     -4.4080      7.1665     -2.3430
H      3.6636      4.6271     10.9253
H     -1.3382      6.2258     -1.3773
C      4.0852      3.0047      4.5687
C     17.3719     -3.2410      5.1145
C      6.0085     -0.8693      9.1449
C     -6.1067      9.1407     -6.3155
C     -7.2992      4.6982     -5.0365
C      5.4730      0.4640      8.6773
H     -0.5238      4.6378     -5.7648
H     -3.5645      9.8053      0.2318
H      5.4290     -0.9843     10.1537
H     -2.3012      5.2596      0.5323
C     14.3645     -3.0133      1.4574
H      2.3611      4.6268      9.5654
H     10.9867     -3.5124      3.3586
