261

C     20.1071      9.0537     13.8469
N     -1.5923     10.3064      1.5344
C      3.9692      1.5300      6.9060
C      1.8515      2.9432      1.4757
C      7.2162      5.0791      2.5706
H     -3.5758      4.1284      2.3139
C      6.7173      3.7799      2.8843
C      3.4695      3.9460      5.1564
C     -6.2171      9.7989     10.8850
C     16.1517      7.0022     19.4299
C      5.9041      1.6598      3.6306
C     -7.0601      8.9089     10.0824
C     13.7764      8.6336     13.8098
N     -0.2374      2.4802      6.1408
C      0.5257      5.8940      0.4669
O     -1.4817      2.4516      1.5037
C      3.2056      3.8450      6.8088
C     15.7062      6.1461     17.3934
C     16.5453     10.5122     17.1847
H    -11.5993     13.1302      9.4807
H     -3.2481      3.1572      3.6984
H     17.8196      6.3297     14.7961
H     -6.8790     11.2085     12.6541
C     17.1209      9.2445     16.5364
H     -8.5370      8.3774     11.1474
H     -5.6661     10.3842     10.2409
H      6.2594      4.0444      3.8333
H     13.0890      7.3474     10.7205
H     -0.7502      5.1162      6.6084
C      2.9479      2.6264      7.6109
H      6.5465      0.8630      4.1999
O     14.9809     10.2820     15.4533
C     -4.7246     13.0391      8.8734
C      6.6475      6.0014     10.0524
H      2.1948      0.0250      5.8652
H      1.9130      7.9028      8.8397
C      6.1553      2.5401      2.4841
H      5.9185      4.7972      7.5225
H     -5.6078      9.4857     11.7033
H     -7.9972     12.2648      9.3354
C     17.7467     10.9722     18.1142
C     -2.9912      8.2399      4.9049
O      2.0134      8.6110      4.8048
C     -1.4646      7.9727      7.0112
C      8.9400      8.1204     11.9425
C     20.7414      7.9256     13.1675
C      6.4597      7.0759     -0.6867
H      5.2698      3.6226      0.8781
H     17.9507     10.4799     14.8835
H      1.8955     -0.9938      3.3557
H     -5.3429      5.8595      8.2322
H     15.5119     11.1676     15.6746
C      7.3222      6.2535     11.4473
C      7.6835      5.8842      3.5967
C     -0.9910      6.6285      5.2440
H     15.5150      8.3900     20.3965
H      3.1958     -0.0111      1.6398
H     -6.9832     11.4223     10.6465
H     16.0576      7.1899     13.5674
C     -3.2407     11.4299      7.3481
C      5.3372      5.7997      9.5893
C     16.0156      7.4883     17.8372
C      4.6493      5.9247      0.3174
C     17.9510      9.4626     15.1895
H      8.1752      7.8772      3.9943
H     -9.1795     13.9796     10.1730
H     -6.5354     12.5815      9.8535
C      0.0142      3.2799      8.3112
C     13.3182      8.3349     12.4121
C      1.7027      1.6794      7.6918
H     -2.8866      8.6024     10.1878
C     -0.7374      6.1711      1.3400
H      6.0320      8.2209     -1.0488
H     -2.1405      2.3420      4.6672
H     -7.9601     10.3638     11.4091
C     10.2995      7.5134     12.6214
O     14.8895     11.2011     13.4988
C     -6.2245      8.6014      8.7609
C     16.5079      8.2631     20.1900
C     -9.6023     14.0642      9.1860
C      2.9701      1.5803      4.5042
H     -2.6583     10.2571      2.0229
H     -1.3391      9.9086     -0.6533
H     -7.1173     12.4310      6.9830
H    -10.2508     16.5091     10.8167
C      3.9515      3.4512      3.0023
C     -2.0594      8.4206      0.5582
C     11.1658      7.1423     11.3767
H     -2.9130      9.2819      7.0733
C      5.3038      2.3716      4.8657
H     -4.0294     13.8520      8.4624
C    -10.3761     11.9353      8.4479
C     -8.1054     11.5081      8.5669
C     -2.2185      5.2814      3.6603
C     16.8491      9.4788     19.5764
C      2.3171      3.6257      2.7006
C     -8.0291      8.1095     10.3318
H     15.8010      8.5879     14.5649
H      1.6916      4.0803     -0.7811
O      5.6172      6.5660      6.6809
C      0.6073      8.0831      4.5424
H     -8.2086     10.5212      9.0237
C     -2.8135      8.7646      3.5504
C     -1.9511      7.7595      2.9771
H     -6.9516      8.2774      8.0775
C     -2.5340      7.5780      7.9272
H      2.5491      4.3439      4.9710
H     13.7329      9.2719     10.3619
H      6.4170      1.9687      1.4351
H      0.5371      3.1929      9.2209
C      2.8868      2.1081      0.9934
C     -0.0276      8.5942      2.1197
C     -0.4271      3.1775      1.2554
C     -0.1466      4.0268      4.1621
C     -5.6074     10.9223      7.6987
H     -2.9725      6.7609      7.2987
H     -0.0866      5.6636     -0.4322
O     -0.0746      9.8474      6.0350
C     -6.7684     11.8031      7.9259
C      0.7953      7.1000      6.8906
C     15.0656      7.7964     14.1318
H     15.1844      8.2390     15.9839
C      0.6520      7.4341      3.0188
H     -4.4649     12.4906      9.7189
C      2.5904      0.5589      3.4440
C      0.2645      2.1315      7.4671
C     -3.1064     10.1767      6.4592
C     -2.6559      3.3084      4.7136
C     18.3630     12.1251     17.6832
C     -9.8496     16.6154      9.8885
C      0.7138      2.5780      0.6125
C     -1.3548      7.7715      1.7251
C     -9.1518     12.2470      7.8488
N      2.2784     -0.5805      4.0949
H      3.5121      2.4622     -1.0470
C      2.9848      1.8555     -0.4492
O     16.9827      5.8459     15.5250
C      9.5480      6.2651      0.4175
H     18.8113      9.2883     19.1443
H     -0.0514      1.0759      7.7551
C     -2.9280      5.0721      2.4886
C     -2.9553      7.8334      9.1479
H      1.8903      1.1422      6.7554
H      7.6798      4.6713      0.8621
H     -4.5849      9.2019      7.8804
C     -1.8049      9.7202      0.3308
H      4.5728      5.1404     10.0739
H      1.7401      6.4588      9.7185
H     -1.0503      9.6525      4.2436
H     15.0510      9.7197     11.8388
H      2.0072      2.0526     -1.0176
H     -1.0290      3.0854      8.3261
C     14.9617      7.2985     15.5720
H     -0.8917     11.0987      1.2387
C     14.0935      8.9238     11.5262
C     -7.1692     10.9084     11.7393
H     15.4446     10.5595     17.5416
C      4.2991      8.0434      4.3088
C      7.6816      7.2993      3.2459
C     21.3948      9.6191     14.4897
C     19.1404      8.6700     14.9648
C      4.4360      6.0513      6.5299
C      1.6895      4.9659      2.5586
C      5.9614      6.2223      0.4316
C      5.7942      7.5485      4.4653
C      8.3172      6.5631      1.0538
C      4.0753      5.0159      7.6326
C      1.4962      5.0336      0.9399
H     -2.6074      5.5568      6.1721
C      6.3547      7.1239      5.7996
H      9.8381      5.2688      0.1228
H      0.5887      1.5817     -0.2314
C      7.2356      5.5636      1.1330
H     -0.2681      3.4649      3.3371
O      7.6596      7.2437      6.1215
H      8.9191      9.1464     11.7745
H     22.1551     10.1219     13.6260
H      1.8131      2.9461      3.2436
H      0.0152      9.5618      2.7693
H      3.3634      5.1635     -0.2159
H      4.9564      4.9451      4.4799
C     12.3370      7.4806     11.5541
C     15.6476      6.1337     15.9493
H      3.3004      7.1118      9.2492
C     -1.6676      4.4269      4.6880
C      0.5483      6.9132      5.3422
H     17.0183      8.2409     21.2059
C      1.4101      5.7472      4.9730
H    -10.7102     11.0293      7.8971
H      1.4895      1.1185      1.8898
H     17.0298     11.2801     16.6476
H     -0.1874      7.4491      8.8968
C     -5.0149      5.9388      9.1594
C     -8.7870     13.6410      8.0074
C      6.4127      7.9731      3.1191
C     -3.8809      9.4430      5.4296
C     -0.0961      6.2623      2.9169
C     -1.2486      6.5267      3.7183
H      4.4133      6.3787     -0.6402
H     -3.1095      3.3787      5.5485
C    -10.9098     13.3638      8.7629
C      0.6404      5.1655      3.5492
C      4.9070      3.5263      2.1053
H      1.9554      4.0843      7.9231
H     -5.6804      7.6599      8.9528
H     -2.2421     11.7208      7.7402
H     -5.4197     10.7664      6.5575
C      2.2125      6.9470      8.8198
C     -1.5644      5.3159      5.8885
C      2.5151      0.8714      2.0141
C      1.2452      4.5413      5.9930
C      2.0511      6.4014      7.3599
C      2.3997      4.6618      0.0050
H     -1.7189      5.6430      0.8463
H      3.8903      2.2103      1.4191
H      3.3847      0.9539     -0.4059
H     -2.0568     10.1864      5.9960
H      5.1457      0.9596      3.3710
C     -0.5802      8.8988      4.9338
C     -4.1030      7.0101      9.6328
H      4.0890      5.2406      1.1555
H     20.9817     10.6773     14.9570
C     -4.3737     11.7685      7.9282
H     -3.2037      5.9861      1.7979
H     -4.3339     10.2901      4.6758
H     -7.1857     14.5397      9.2872
C     -0.3666      7.3384      7.7196
C      0.5907      3.4507      5.4285
O      8.0742      5.2727      4.6776
C     -1.5617      8.1426      5.4978
C     -6.6396     14.8019      7.1089
C      5.0461      2.0198      6.2192
C      3.1799      0.8018      5.8154
H      8.7970      5.7254      5.1774
H     -6.4115     16.0625      7.0003
H      5.3056      3.8280      9.1279
H     -4.8260      9.4422      9.3817
H     19.0883     12.5185     18.3633
C      1.7648      4.8814      7.2000
H     -0.3567      4.2617      1.5506
C      4.0339      5.2878      5.0378
C     -9.6517     15.5110      9.1372
H     21.5985      8.9469     15.6208
C      8.2763      7.2820     10.9028
H      3.3687      5.7777      8.2365
H     10.4903      7.0345     10.4983
H     -6.0689     13.8649      6.6102
C      3.9684      2.7296      4.3657
C     17.9400      9.9199     19.0439
C     -6.1699     12.8577      8.7768
C     -5.4338      9.6573      8.4141
C      5.2173      4.8541      8.4524
C     -7.1674     14.0371      8.3622
H     -0.0330      4.1645      7.9303
H      3.0883      3.8324     -0.0047
H     19.6624      9.7988     13.1512
H      7.3343      5.3897     12.0110
H     -1.1111      3.0942      6.1690
C     14.5253     10.1589     14.1041
H    -10.0341     17.6318      9.5086
H     -2.7567      9.6818      2.9631
