260

C      7.1078      8.4621      0.8477
N     -2.0938     10.7208      1.3612
C      3.8635      1.8184      6.9849
C      2.3243      2.2452      1.7389
C      7.5303      4.8450      2.0825
H     -2.9511      6.9869      2.5751
C      7.5048      3.5057      2.7198
C      3.5914      4.0256      5.0952
C      3.1974      7.0028      6.3664
C      6.1277      1.8759      4.0662
C     -7.3078      8.1364      9.9918
C      0.6976      8.8627      0.7119
N     -0.4301      2.6017      6.3378
C      0.5406      6.1331      0.6294
O     -1.0854      2.3317      0.7467
C      3.2201      4.0861      6.4675
H      0.0774      6.7500     -0.4239
C      2.8369      6.0531      4.2470
C      3.2819     10.3561      3.5263
H      1.0087      1.3817      9.6945
H     -2.9656      2.8886      4.9547
H      4.6351      6.0407      2.7347
C      3.8790      9.1370      3.0243
H     -8.8439      6.8097     10.7224
H     -7.3963      8.9131     10.8796
H     -0.8924      5.6147      6.7661
H     -5.6294      3.2017      8.0216
C      2.8026      2.8886      7.4796
H      6.7585      1.1133      4.6136
O      1.0409     10.6638      2.4708
C     -4.9329     12.5252      8.7104
C     -6.8256      5.8245      9.8316
H      2.2928     -0.0991      6.8181
H     -9.4780      5.1367      7.8791
C      6.3428      3.0889      3.2013
H     -7.3408      3.3819      7.3979
H      2.8308      6.4071      8.8033
C      4.4062     10.7415      4.4416
C     -2.9064      8.8189      5.0309
O      2.2977      8.5303      4.8679
C     -1.4497      8.6225      7.1367
C     -4.4685      7.7082     11.7644
C      7.6464      7.4234      0.1878
C     -6.4514      6.6787     12.1576
H      5.1654      4.1789      1.8774
H      4.8285     10.0443      1.2324
H      1.4110     -0.6393      5.7168
H     -4.5168      6.8668      7.3635
H      1.9769     11.4071     -0.0488
C     -5.4398      2.7059      8.9567
H      0.2952      0.8951      1.6620
C     -5.8849      6.2578     10.7197
C      7.7267      5.7133      3.0004
H      7.8307      7.8642      1.9293
C     -1.0161      6.9827      5.1198
H      3.4700      8.4455      8.4836
H      3.4001     -1.0011      2.4959
H      2.0817      7.3362     -0.3946
C     -3.4838     11.5651      7.2125
C     -6.8896      4.7591      8.9969
C      3.2294      7.4694      5.0140
C     -7.9191      4.9715     12.4029
C      4.8887      9.3711      2.0751
H     -3.5039      8.0445      5.1877
H      8.0943      7.7656      3.9822
H      3.5262      1.3044     10.5997
H      4.8030     12.6943      4.1502
C     -0.5143      3.7733      8.3617
H      9.0089      9.3688      1.3339
C      0.1638      8.9766     -0.6903
C      1.4452      2.0926      7.5431
H     -1.5593      8.0292      9.5954
C     -0.4953      6.5390      1.4813
H     -7.3288      7.1266     12.5032
C     -2.5401      7.4019     -0.3414
O      2.4139     10.9940      0.5691
C     -6.6121      8.4856      8.9603
C      3.6048      8.2760      7.3594
C      3.2931      1.8530      9.5273
C      2.8828      1.5315      4.8880
H     -2.7576     11.3849      1.4469
H     -7.3845     11.7675      6.9886
H      1.8228      3.9727      9.8741
C      3.9985      3.1347      3.2212
C     -2.2165      8.3995      0.6606
C     -1.6916      7.2845     -1.3604
H     -1.6942     11.2831      5.7485
C      5.1822      2.0735      5.1465
C    -10.5457     12.8226      8.9263
C     -8.4091     11.3886      8.5553
C     -2.2270      5.4522      3.9124
C      3.6364      9.6699      6.6394
C      2.6958      3.3830      2.2168
C     -7.9457      6.7749     10.0590
H      2.4419      8.9842      0.2719
H     -3.2958      6.0402      3.9587
H      1.0563      5.0707     -1.0097
O      5.7660      6.6399      6.4999
C      0.9584      8.1106      4.4277
C     -2.7137      8.8229      3.4712
C     -2.1121      7.4926      2.8330
H     -6.7302      7.4663      8.6916
H      8.3100      2.8004      2.8263
C     -2.8528      8.6559      7.8610
H      2.3956      4.1427      4.6871
H      0.1386     10.7607     -2.5332
H     -7.9620      3.1631     13.4645
H      0.0445      4.4996      8.7563
C      3.3928      1.2397      1.9105
C     -0.1161      8.6246      2.0561
O     -8.7069      3.9747     13.1665
O     -5.6937      4.0384     10.9985
C     -0.1794      2.9642      1.2937
C      0.2021      3.6760      3.5859
C     -5.9402     10.5331      7.6596
H     -3.3833      9.6262      8.0732
H      2.7726      9.9360      6.1433
H     -0.5933     10.1046      4.4636
H     -0.1047      7.6738     -2.4395
O      0.5740      9.6052      6.1132
C     -6.9411     11.5265      7.9998
C      0.6582      7.1573      6.7196
C      1.9113      7.9246      0.6747
H      2.8707      8.2936      2.9652
C      0.8392      7.6911      2.9919
H     -3.9995     13.2587      8.2566
C      2.5423      0.3139      4.1051
C     -0.0126      2.4763      7.7455
C     -2.6407     10.9623      6.1887
C     -2.9148      3.6118      5.7023
C      4.9272     11.8703      4.9269
C      3.0060      4.1861      9.9096
C      0.9639      2.0242      1.3641
C     -1.2411      7.7364      1.7305
C     -9.1438     12.7897      8.7601
N      1.7474     -0.6426      4.7016
C      4.1143      0.6993      0.6191
O      3.9184      6.2519      2.0798
C     -3.3002      6.1168     13.0806
H      5.4564      9.0883      5.8543
H     -0.1492      1.4724      8.1307
C     -2.4161      4.5360      2.4661
C     -2.6429      8.2496      9.3251
H     -6.4999      2.0278      9.0035
H      1.4067      1.4138      6.7708
H     -5.1780      3.1445     11.4349
H     -4.6254      9.2525      8.9344
C     -2.4624      9.6872      0.4708
H     -8.5183      7.0933      8.9636
H      1.7815      7.4903      8.9091
H     -0.5305      9.5091      2.5088
H      1.5372     10.4839     -1.3765
H      4.3084     -0.2696      0.9171
H     -1.0232      3.1568      9.3914
C      1.9859      7.5623      2.2573
H      3.6991      1.1928     -0.2881
C      0.5568      9.9810     -1.6815
H      2.2434     10.3069      3.7845
C      4.3036      8.4263      4.4208
C      7.6562      7.2551      3.0665
C      7.9444      9.6560      1.0198
C      5.7862      8.3599      1.8361
C      4.4609      5.9477      6.2267
C      2.0495      4.8413      2.1003
C     -6.4457      5.4153     12.8176
C      5.4891      7.6739      4.1706
C     -4.4735      6.3179     13.5124
C     -8.5903      4.8426      7.1866
C      1.4167      4.9943      0.7832
H     -2.3943      6.5365      6.5448
C      6.3390      6.9804      5.3186
H     -1.3840      2.0887      5.9860
H     -3.1261      5.3151      2.0475
H      0.8617      1.6921      0.2390
C     -5.5377      5.0523     13.7305
H     -0.7067      4.0104      3.7851
H      8.1521     10.1842      0.0848
H     -0.1360      3.5474      2.4674
H     -1.8137     10.1725      2.1808
H      2.7635      5.4981     -0.6364
H      4.9535      5.5970      3.8071
C     -0.5118      7.8695     -1.3834
H      7.2603      5.8782      4.8738
C      2.6392      6.2535      2.6206
H      1.2233      6.0888      9.0074
C     -2.0765      4.6692      5.2929
C      0.4041      6.9726      5.1576
H      4.4855      7.8524      7.3008
H      2.0374      2.2264      5.3297
C      1.2568      5.5832      4.4736
H    -11.0056     11.7454      8.8549
H      1.9938     -0.0138      2.3644
H      3.2161     11.0456      2.7600
H     -0.3262      7.8924      8.6702
C     -4.2318      6.4419      8.2922
C      4.2403      1.0947      8.5463
C      6.2370      7.5161      3.0658
C     -3.4588      9.9452      5.7171
C     -0.0584      6.2792      2.7710
C     -1.2421      6.5175      3.7837
H      2.5063      3.8948     -0.3362
H     -8.0881      4.9526     11.4026
H     -2.5302      3.1238      6.6537
C      1.8729      1.3922      8.8961
H     -0.8454      9.6065      7.2306
C      0.7768      5.0065      3.1535
C      5.0916      3.3633      2.5633
H      1.5810      4.2682      7.4724
H     -5.3044      8.6768      7.1667
C     -5.8477      3.7985      9.6602
H     -2.9328     12.1118      7.9733
H     -6.3403     10.0936      6.6931
C      1.9857      6.5349      8.4031
C     -1.6042      5.7956      6.0235
C      3.0618      0.0122      2.8555
C      1.1226      4.6742      5.5490
C      1.9509      6.4848      7.0560
C      1.9709      4.7753     -0.6186
H     -1.6688      4.6852      1.6970
H      4.1173      1.7932      2.8601
H     -2.8950      9.2121      9.9346
H      4.9667      1.0534      1.0370
H     -5.0795      5.6387      8.7180
C     -0.2513      9.1744      4.9030
C     -3.8529      7.1260      9.4222
H     -8.6197      5.8486     12.8584
H     -3.8407      9.0213      3.1923
C     -4.6657     11.3273      7.7333
H     -2.5851      3.4943      2.2299
H     -4.5016      9.9177      5.8838
C     -0.4382      7.5850      7.5432
C      0.5287      3.4944      5.3872
O      8.0495      5.2860      4.1129
C     -1.5166      8.5827      5.6955
C      6.1063      1.2435      7.0813
C      5.1345      2.0024      6.4039
C      3.1594      0.7002      6.1662
H      7.1459      0.8809      7.0244
H      4.6132      3.0308      8.6670
H      0.3319      8.8297      6.5904
H      5.4888     11.1383      5.8101
C      1.8180      4.9547      6.7499
C      4.1370      5.4704      4.6820
C      3.4961      3.1720      8.9893
H      7.5154     10.5743      1.6296
C     -4.5538      6.8255     10.6158
H      3.2928      3.5401     10.9720
H     -1.8398      6.5836     -2.2398
C      3.9047      2.5081      4.6081
C      4.6182      9.6074      5.4058
C     -6.4172     12.6261      8.7351
C     -5.4443      9.1379      8.3088
C     -7.5029      4.2753      7.8404
C      5.6528      0.7611      8.3209
H     -1.4744      4.3356      8.4828
H     -3.0523      9.7408     -0.4236
H     -2.7809      5.2146     13.4770
C      1.1262     10.2227      1.4536
H      3.1394      5.1572      9.9808
H     -2.0228      9.7062      3.6437
