269

C     19.6606      8.7626     13.6621
N     -2.3850     10.8973      1.8886
C      3.9389      1.5754      7.1955
C      2.2107      2.4291      1.5389
C      7.5172      4.5637      2.0399
H     -3.2561      6.9015      2.4104
C      7.1883      3.3487      2.5785
C      3.4386      3.8673      5.5858
C     16.2248      6.9601     19.5825
C      5.8508      1.8775      4.0095
C     -7.3549      8.5249      9.9752
C     13.6459      8.9885     13.5271
N     -0.1369      2.4637      6.1926
C      0.3869      5.7355      0.3726
O     -1.5776      2.9280      1.1236
C      3.0432      3.9689      7.0999
H     -0.2562      5.2479     -0.5136
C     15.8031      6.1173     17.2222
C     16.3553     10.2579     16.2013
H    -11.8454     13.7842     10.0388
H     -3.4495      3.3760      4.8362
H     17.3421      6.7734     16.0789
C     16.8826      8.8253     16.0442
H     -8.8443      6.7511     10.5976
H     -7.2576      8.9393     10.9043
H     -1.7023      4.7563      6.7436
H      6.8285      2.4724      8.0134
C      2.9764      2.6433      7.6999
H      6.7105      1.2668      4.3349
O     13.7473     11.0104     15.0015
C     -5.0568     12.4227      8.0948
C      6.1726      6.0885     10.0177
H      2.7703     -0.4286      6.0406
H      3.7937      5.5125      8.3849
C      6.0768      3.1826      3.3690
H      5.2906      2.9418      6.8297
H     -7.8021     10.9034      9.4844
H      2.5443      6.2231      9.4069
C     17.2648     10.8559     17.3042
C     -2.7684      8.6404      5.1795
O      2.1165      8.5883      4.7929
C     -1.2937      8.3894      7.0709
C      8.5701      8.3162     11.9738
C     20.3152      7.7747     12.8221
C      6.3756      6.8931     -0.9088
H      6.7211      1.9865     -0.0310
H     17.3464      9.3726     14.0311
H      2.3299     -1.3819      3.8523
H     -4.3401      7.1871      7.3247
C      7.6044      2.8802      8.7656
C      7.0658      6.6205     10.8883
C      8.0382      5.5583      3.0274
H      7.8293      6.9088      2.0392
C     -1.0775      6.7362      5.2019
H     16.8412      8.6143     21.0033
H     15.1965      7.5974     12.8342
C     -3.0199     11.7906      6.8889
C      6.3308      4.8606      9.4735
C     16.0105      7.4886     17.8976
C      4.7302      5.1609     -0.2987
C     17.6744      8.9443     15.0043
H     -3.7043      8.1452      5.3065
H      8.0642      7.6262      4.2053
H     -9.0779     14.1109     10.5633
H     -6.4379     11.8403      9.9323
H     17.7116     12.2333     16.1459
C      0.1643      3.6973      8.7102
H     20.1979     10.5441     13.9990
C     12.9970      8.9457     12.2563
C      1.4974      1.5446      7.8324
H     -1.8233      7.9260      9.8903
C     -0.7261      6.3486      1.4245
H      5.6180      7.6846     -0.7827
C      9.9682      7.9553     12.5378
O     15.1359     10.6866     13.2428
C     -6.7078      8.5861      8.8846
C     16.8951      8.3656     19.9072
C     -9.6752     14.5665      9.7314
C      3.0039      1.3064      4.9257
H     -3.1610     11.4838      2.7012
H     -7.2419     11.6479      6.5598
H     -8.7624     17.7375      9.9755
C      3.6187      3.1843      3.2297
H     -4.2008      9.2117      6.5925
C     -2.4585      8.8106      0.6768
C     11.0436      7.6380     11.6013
H     -1.4184     10.4321      6.7541
C      4.8915      2.0834      5.0357
H      4.0451     -0.3515      6.0532
H     -1.2840      2.0734      0.4023
C    -10.7232     12.2960      8.7566
C     -8.1364     11.0130      8.4278
C     -2.0365      5.2763      3.6146
C     16.3593      9.5753     19.3401
C      2.3104      3.4459      2.7987
C     -7.8670      6.9536      9.8906
H     15.3972      9.0369     13.5918
H      8.3940      5.9200      4.3548
H      2.5715      4.3866     -0.9035
O      5.7202      6.5099      6.4505
C      0.7345      7.9229      4.4163
H     -8.7450     10.2324      8.2581
C     -2.8382      8.7618      3.5045
C     -2.5049      7.6586      2.7161
H     -7.0512      7.6242      8.1566
C     -2.5078      8.7574      7.9271
H      2.3817      3.9369      5.1913
H     13.3385      9.3793     10.2407
H      4.5810      3.8296      0.8892
H      0.0533      4.9300      8.3195
C      3.3211      1.3731      1.8163
C     -0.0754      8.6627      1.8116
O      4.7319      3.7509     -0.2451
O      7.3277      3.8968     11.1775
C     -0.3228      3.0938      1.5122
C      0.3338      3.8418      4.0450
C     -5.6931     10.4024      7.2142
H     -2.4709      9.7981      7.7145
H     15.7074      9.9950     20.0742
H     -0.5480      9.3543      3.9436
H     12.8386      6.8128     12.4366
O      0.3374      9.9775      5.6882
C     -6.8966     11.1757      7.7174
C      0.5421      6.7021      6.8351
C     14.7968      8.0500     13.6764
H     15.6411      8.2530     15.7007
C      0.7274      7.6990      2.8340
H     -4.5880     13.2344      8.5064
C      2.5680      0.2197      3.8385
C      0.1544      2.4035      7.5984
C     -2.3918     10.8725      6.1190
C     -2.3902      3.2575      5.1960
C     18.2790     11.7546     17.0091
C     -9.4812     16.9153     10.2162
C      0.6750      2.2462      1.4968
C     -1.5683      7.8882      1.4708
C     -9.2145     12.2564      8.5096
N      2.2846     -0.7540      4.4229
H      6.9810      2.5064      1.5612
C      4.4730      1.2356      0.7835
O     17.0934      6.2885     15.3454
C      9.5059      6.4565      0.4698
H     18.5253      9.6921     18.9268
H     -0.7589      2.0861      7.9690
C     -2.8030      4.8363      2.4809
C     -2.5261      8.5128      9.3196
H      8.0756      2.0150      9.2201
H      1.5931      0.9770      6.8525
H      6.7091      3.6688     11.7552
H     -5.3559      9.5306      9.6051
C     -2.8039     10.0913      0.8561
H     -8.2822      6.8001      8.9713
H      2.7993      7.7052      8.6452
H     -0.0128      9.4746      2.7448
H     14.3797     10.1523     11.6107
H      4.3802      0.2354      0.5427
H      0.9722      3.2940      9.1406
C     14.8630      7.6528     15.0736
H      4.1772      1.6923     -0.1254
C     13.8013      9.3198     11.2297
H     15.2912      9.9676     16.4531
C      4.3959      8.1495      4.3931
C      7.8805      6.9323      3.0756
C     20.5789      9.6304     14.4538
C     18.7350      8.0544     14.7742
C      4.4492      5.8850      6.5266
C      1.7244      5.0212      2.4148
C      6.1125      5.7908     -0.0254
C      5.5857      7.4145      4.2655
C      8.1590      6.4290      0.3633
C      4.3062      4.9286      7.6451
C      1.3567      4.9846      1.0246
H     -2.7717      5.8025      5.7272
C      6.4475      6.6918      5.1747
H     -1.8834      2.4813      4.5240
H     -3.4629      5.1135      1.5162
H      0.3686      1.1941      1.5617
C      7.0539      5.4173      0.9305
H     -0.3690      3.4989      3.3162
O      7.6799      7.1901      5.8053
H      8.5564      9.6549     11.7563
H     21.1584      9.1209     15.2817
H      1.4978      2.9916      3.3073
H     -1.3408     11.1258      1.9411
H      3.0442      4.1308      0.7295
H      4.7181      4.8524      4.2174
C     12.2811      7.6990     11.9359
H      6.5398      5.5798      4.8246
C     15.5536      6.2243     15.6766
H      1.1039      7.2334      9.2539
C     -2.1891      4.6936      4.8949
C      0.4966      6.6299      5.4449
H     18.0567      8.3420     19.6167
H      1.8490      1.5879      5.1135
C      1.3935      5.5990      4.8299
H    -10.7965     11.7410      9.6060
H      2.4938     -0.7961      1.8255
H     16.4556     10.5054     15.1506
H     -0.3594      7.8143      8.6839
C     -4.5113      6.6153      8.2242
C     -8.5154     13.5510      8.4796
C      6.1641      7.2877      2.9500
C     -3.4143      9.8645      5.8041
C     -0.2186      6.4615      2.9010
C     -1.4422      6.4379      3.7410
H      4.3723      5.3574     -1.3477
H     -2.1888      3.3925      6.2137
C    -10.8094     13.8552      9.1990
C      0.8951      5.1061      3.5610
C      4.8029      3.8888      2.8580
H      1.7170      4.4268      8.2228
H     -4.6262      8.5426      8.2526
C      6.6823      3.5151      9.8717
H     -2.6026     12.4374      7.7182
H     -5.6298      9.4403      6.3060
C      2.1422      7.0635      8.8442
C     -1.6711      5.4308      6.0074
C      3.1029     -0.0249      2.4642
C      1.1565      4.6866      5.9295
C      1.9511      6.3997      7.4071
C      2.3831      4.5300      0.1648
H      3.9354      1.6956      2.8002
H     -3.0037      9.5789      9.6843
H      5.2801      1.1601      1.3683
H     -5.4952      5.9917      8.0841
H      8.1287      3.7875      8.4101
H      4.8287      1.1313      3.7018
C     -0.2795      9.0103      5.0102
C     -4.0655      7.5391      9.3828
H      4.0680      5.8061      0.4320
H     -4.0196      9.2627      3.5668
C     -4.5350     11.4970      7.3998
H     -2.8448      3.9332      2.8720
H     -4.2779     10.7069      5.2858
H     -6.5487     14.0863      9.1357
C     -0.1371      7.6168      7.6191
C      0.3373      3.6435      5.4408
O      8.5789      5.0186      4.4043
C     -1.3066      8.2032      5.6786
C     -6.7835     13.8813      6.7362
C      4.9898      1.8739      6.3142
C      3.3118      0.4695      6.3217
H      8.1062      6.3996      5.6800
H     -5.7638     14.0176      6.8783
H      6.1403      3.5633      8.0006
H      0.7774      9.4126      6.6451
H     19.1600     12.3562     17.5107
C      1.8650      4.8163      7.2289
H      0.1895      4.0433      1.4780
C      4.0969      5.2756      5.0587
C     -9.6873     15.8229      9.1394
H     21.5100      9.6589     13.8301
C      8.0456      7.6959     10.6320
H     10.7336      6.7112     11.3485
H     -6.7637     12.9965      6.1626
C      3.6908      2.6719      4.5802
C     17.4258      9.9868     18.4808
O      6.6349      2.6635      0.6447
C     -6.3697     12.2235      8.6396
C     -5.5548      9.2704      8.4953
C      5.6502      4.5502      8.1286
C     -6.9377     13.6079      8.2828
H     -0.4758      3.1557      9.3700
H      2.1345      3.1385      0.6238
H     19.0158      9.4966     13.1674
H     10.3796      5.9728      0.2549
C     14.1965     10.2526     13.9588
H     -9.3774     16.2967     11.2279
H     -2.5030      9.6571      3.3480
