262

C     19.9145      8.9968     13.7905
C      4.0910      1.3082      7.0821
C      2.1865      3.1153      1.3360
C      7.3974      4.8026      2.4237
H     -3.4611      3.5499      3.0416
C      7.4811      3.5686      2.8589
C      3.5558      3.7710      5.4197
C     -6.2600      9.5427     10.5936
C     16.1826      7.0111     19.4496
C      5.9043      1.6909      3.6661
C     -7.0123      8.6708      9.5677
C     13.7330      8.7065     13.6950
N     -0.0680      2.9414      6.4653
C      0.3933      5.7337      0.7200
O     -1.2209      2.5731      2.2994
C      3.6439      3.7922      6.7366
C     15.9153      6.1208     17.3514
C     16.4936     10.2366     16.6577
H    -11.6576     14.5941     10.0212
H     -3.3382      3.2827      4.6411
H     17.6940      6.0349     16.2939
H     -6.8799     11.4022     10.4460
C     16.8861      8.9813     16.3564
H     -8.4282      8.3768     10.9120
H     -5.4499     10.2760      9.9949
H      7.9843      3.1794      3.8712
H     12.6364      7.0216     10.6328
H     -1.1569      5.3475      6.5545
C      2.9553      2.3912      7.3692
H     -1.9915     10.4701     -0.8265
H      6.8130      0.9629      3.6366
O     14.9201     10.6769     14.8558
C     -4.9109     13.1856      8.2902
C      6.7670      6.1139      9.6713
H      3.0770      7.1350      8.8018
C      6.0607      2.6379      2.4979
H      6.4382      4.6419      7.2929
H     -5.6434      9.1138     11.2504
H     -7.3088     10.5055      8.6889
H     -7.9168      7.0412     10.3803
C     17.4620     10.7217     17.5557
C     -2.8339      8.6047      5.2024
O      2.1327      8.4928      5.1832
C     -1.4859      7.7541      7.0241
C      8.6205      8.0349     11.8857
C     20.2474      7.8319     12.9408
C      6.3934      6.9500     -0.6855
H      4.8252      4.0734      1.4779
H     17.1802      9.4614     14.2872
H      1.5520     -1.1025      3.1633
H     -5.4564      5.9331      7.5877
H     15.8068     11.4248     14.4594
C      7.1550      6.5687     11.0000
C      8.1789      5.8235      3.3193
H     21.6718      9.2636     15.4965
C     -1.0110      6.6973      4.9581
H     15.4143      8.3631     20.9602
H     15.0937      6.9190     13.4136
C     -3.3657     11.4978      7.6699
C      5.6214      5.8708      8.9377
C     16.1145      7.4989     18.0197
C      4.6278      5.8129      0.6967
C     17.7259      8.9934     15.0855
H     -3.3233      7.7523      5.5225
H      9.0243      7.4100      2.8720
H     -8.9759     14.2254     10.3333
H     -6.6217     12.3289      9.6463
H     18.0717     12.5493     17.3032
C      0.5101      3.8636      8.8686
C     13.2924      8.0170     12.4001
C      1.6674      1.7243      7.6535
C     -0.7067      6.5800      1.4580
H      5.8570      7.4943     -1.3483
H     -1.8288      2.9496      4.3403
H     -7.2429     10.9391     12.0509
C      9.9616      7.5031     12.7380
O     14.2202     10.9037     12.9082
C     -6.7871      8.6700      8.2477
C     16.2711      8.4178     20.2544
C     -9.5308     14.5208      9.4107
C      2.9893      1.5259      4.6211
H     -0.8639     10.2980      0.5398
H     -7.5828     12.3700      6.7935
H     -9.6208     16.6606     10.6525
C      3.6094      3.3896      3.1871
H     -4.3849      9.7534      5.6499
C     -2.3101      8.6325      0.5757
C     10.9033      6.8573     11.8835
H     -1.5779     10.1486      6.7216
C      5.2576      2.2497      4.8780
H      3.9381     -0.0366      5.4594
H     -4.6057     13.7347      7.5062
C    -10.4525     12.5003      9.0770
C     -8.3821     11.1638      8.2494
C     -1.8512      5.2001      3.4011
C     16.8500      9.3602     19.5478
C      2.1766      3.6125      2.6336
C     -8.1478      7.9723      9.9159
H     16.0353      8.5040     13.9691
H     -3.0280      5.0969      1.7397
H      1.2161      3.9497     -0.2567
O      5.6246      6.8066      6.4304
C      0.6968      8.3101      4.4597
H     -8.6767     10.5880      7.4632
C     -2.4693      8.9415      3.4821
C     -2.1146      7.8657      2.8681
H     -7.4802      8.6239      7.3208
C     -2.6546      7.3814      7.4235
H     14.0483      8.6652     10.4610
H      6.3234      1.9001      1.8494
H      1.5974      4.1632      8.8021
C      3.1860      1.8675      1.1288
C     -0.0349      8.6172      1.9969
C     -0.3088      3.0733      1.4445
C      0.0788      4.1273      4.3499
C     -5.8365     11.0164      7.2075
H      2.0752     -0.7474      4.7556
H     -3.4633      7.0249      7.0103
H     16.0860     10.3398     19.5700
H      0.8205      5.7237     -0.3073
O      0.1674      9.7361      6.2533
C     -6.8123     12.1015      7.5627
C      0.7673      7.1235      6.6947
C     15.1373      7.7451     14.1452
C      0.7179      7.9195      3.1117
H     -4.4161     13.6715      9.2517
C      2.6037      0.7185      3.5370
C      0.3659      2.6341      7.9481
C     -2.5089     10.7235      6.7742
C     -2.3406      3.2660      5.0964
C     17.9257     11.8573     18.0834
C     -9.6395     17.1050      9.6236
C      0.9888      2.1610      1.0741
C     -1.2737      7.9492      1.5792
C     -9.0986     12.4451      8.7487
N      2.2153     -0.5900      3.8298
H      3.9168      2.1913     -0.7233
C      3.1662      1.5433     -0.2019
O     17.1749      6.4876     15.5614
C      9.3269      6.4313      0.7311
H     18.9248      9.3467     18.3063
H     -0.3585      1.9221      8.6020
C     -2.7742      4.4198      2.7066
C     -2.7132      7.4308      8.8582
H      1.4040      1.0252      6.6352
H      7.8269      4.8520      0.4297
H     -5.5899      8.7430      6.8501
C     -1.5987      9.5374     -0.1379
H      5.7692      6.7901      8.2986
H      1.5574      7.6815      9.2930
H     -1.0053      9.9507      4.3961
H     15.2035      9.1973     12.1993
H      2.1641      1.7297     -0.7959
H     -0.2018      3.4120      9.7876
C     14.8022      7.4210     15.5241
H      4.5467      5.6269      9.4609
C     14.2509      8.6053     11.5819
C     -7.0476     10.6482     11.0273
H     15.4650     10.2303     16.9849
C      4.5372      8.1288      4.6906
C      7.8944      7.1583      2.7760
C     21.0386      9.8830     14.6104
C     18.9827      8.5699     14.8328
C      4.3490      6.0108      6.3178
C      1.7646      5.0052      2.6662
C      5.8222      5.8304      0.2435
C      5.6453      7.3252      4.1420
C      7.7212      6.8369      1.2381
C      4.4008      4.9996      7.4106
C      1.5136      5.1742      1.2704
C      6.2744      6.8139      5.2971
H      9.5207      5.5849     -0.2396
H      0.7561      1.4051      1.7780
C      7.1187      5.3877      1.0427
H      0.2355      3.4850      3.3619
H     -1.6371      6.9300      9.0878
O      7.5415      6.9876      5.7144
H      8.8189      9.1116     11.9372
H      1.6642      2.8944      3.2053
H     -0.4055      9.5332      2.1704
H      2.9829      4.0587     -0.4020
H      4.7381      4.8302      4.4933
C     12.2454      7.4342     11.6294
C     15.5923      6.2845     16.0156
H      1.5560      5.9526      9.1284
C     -1.4480      4.4268      4.6319
C      0.5138      7.0774      5.2504
H     -8.9946      7.5988      9.1842
H      1.9093      1.8382      5.1484
C      1.2580      5.9044      4.8773
H      1.7463      0.3323      1.4481
H     16.5981     10.9991     15.7674
H     -0.2571      7.0435      8.7119
C     -5.0797      6.0430      8.8140
C     -8.5799     13.8282      8.6400
C      6.3787      7.6056      2.9542
C     -3.2639      9.8600      5.7469
C     -0.3821      6.2457      2.8060
C     -1.5081      6.6465      3.5250
H      4.5236      6.9266      0.5815
H     -1.8596      2.8661      5.9287
C    -10.8799     13.9389      9.1472
C      0.5601      5.3201      3.6727
C      4.8145      3.3181      2.2881
H      1.9652      4.3139      7.6291
H     -2.8713     12.4455      8.1427
H     -5.3622     11.0601      6.1726
C      2.0507      6.9676      8.7200
C     -1.5273      5.5659      5.5301
C      2.7932      0.6638      2.0166
C      1.1503      4.9323      6.0123
C      2.0117      6.6756      7.1802
C      2.0190      4.2178      0.2787
H     -1.4869      5.8777      0.7471
H      4.2026      2.0683      1.1418
H     -1.8614     11.3715      6.1298
H      5.0972      1.0229      3.2421
C     -0.3809      9.0909      4.9541
C     -4.3321      7.3077      9.2831
H      3.8167      5.3111      0.8540
H     21.7516     10.5268     13.9690
C     -4.6271     11.7661      7.9995
H      9.6169      6.5240      1.6728
H     -3.3500     10.6669      4.9382
H     -6.2193     14.4545      9.2046
C     -0.2695      7.3584      7.7468
C      0.8417      3.6199      5.6210
O      8.6751      5.5265      4.3634
C     -1.4684      8.0487      5.5261
C     -6.3477     14.6073      7.0392
C      5.2450      2.0578      6.2646
C      3.3194      0.5421      6.1137
H      8.4607      6.3005      5.1864
H     -5.3258     14.8349      6.8065
H      5.5003      3.4935      8.2776
H     -4.6407      9.5607      8.1241
H      1.0367      9.0504      6.5196
H     18.9793     11.9443     18.3498
H    -11.0256     11.7193      9.3582
C      1.9660      5.1628      6.9923
H     -0.2168      4.1135      1.4942
C      4.0028      5.1803      5.1233
C     -9.6474     15.9052      8.9144
H     20.3259     10.5817     15.1821
C      8.2941      7.3500     10.7864
H      3.7172      4.9901      8.0910
H     10.1551      6.6349     11.0413
H     -6.5485     13.7047      6.5454
C      3.9290      2.7160      4.5765
C     17.9451      9.4530     18.4433
C     -6.4259     12.8211      8.7015
C     -5.7846      9.4913      7.6064
C      5.7222      4.6656      8.0754
C     -7.0979     14.2050      8.7229
H      0.1502      4.5779      8.1516
H     -2.6350      8.5222      9.3493
H      1.1201      1.6046      0.1795
H     19.2221      9.9106     13.5643
H     -0.3660      2.0642      5.9241
C     14.4430     10.0563     13.7991
H    -10.1906     17.8878      9.4250
H     -2.4222      9.8061      2.8353
