266

C     19.7697      8.2773     13.4487
N     -3.2249     10.2536      2.0640
C      3.9362      1.6056      7.1462
C      2.5355      2.6034      2.0392
C      7.4846      4.5842      2.1285
H     -2.7300      6.7717      2.5920
C      7.6161      3.0746      2.1882
C      3.4859      3.9848      5.3914
C     16.1537      7.2818     19.5099
C      6.3864      1.6684      4.2780
C     -6.8832      8.3796      9.2428
C     13.4936      8.9257     13.8177
N      0.4036      2.6078      5.9552
C      0.7249      6.3498      0.8323
O     -0.8375      2.5308      1.1304
C      3.2476      4.0616      6.9034
H     13.8119      7.8518     11.6540
C     15.6494      6.2474     17.4252
C     17.1392     10.5209     16.0887
H    -11.9415     14.0438      9.9514
H     16.9435      7.1337     14.8034
C     16.9522      9.0680     15.9100
H     -8.1610      7.5119     10.4887
H     -6.3064      8.4243     10.2994
H    -11.1655     17.1954      9.9517
H     -2.3463      6.2188      6.8739
H     -6.9115     14.6963      9.0954
C      3.0986      2.7052      7.7416
O     14.1212     10.2389     15.7481
C     -5.2119     12.3549      9.2827
C      6.2189      6.0792      9.3867
H      3.1029     -0.1440      6.6829
H      3.6448      5.5036      8.3726
C      6.6215      2.5745      3.1234
H      5.1605      3.3741      7.8226
H     -9.1608     12.2484      9.9397
H      2.8463      7.9208      8.9144
C     17.5901     10.8864     17.3380
C     -3.0907      8.6647      5.1718
O      1.8740      8.6727      4.9794
C     -1.3626      8.3279      7.1327
C      8.8007      7.7971     11.8800
C     20.6305      7.3457     12.7453
C      6.5974      6.4917     -0.9952
H      5.4958      4.3873      2.0704
H     17.4050      9.3855     13.9702
H      2.3989     -1.5845      5.1154
H     -5.8303      6.7772      8.3522
C      8.1959      2.7598      8.4721
H      1.5894      1.2006      1.1571
C      7.2930      6.2298     10.6143
C      7.8349      5.5038      2.9630
H      8.2017      7.1949      1.8193
C     -1.2626      6.6688      5.3029
H     17.0962      8.9093     21.0151
H     17.0073     10.9990     15.0976
H      2.6076      5.3816      0.8760
C     -3.3899     11.1757      7.5426
C      6.4381      4.8153      8.9594
C     15.7721      7.7724     18.0317
C      4.6896      5.3591     -0.3241
C     17.8227      8.8901     14.7715
H     -3.4991      7.8248      5.9859
H      7.6778      7.8591      3.5289
H     -9.4327     14.6713     10.8589
H     18.6051     12.2030     16.6786
C     -0.3757      3.4293      8.1814
H     19.1357      9.8683     14.7335
C     13.1571      8.9992     12.3565
C      1.7612      1.9550      7.9495
H     10.9779      6.9554     10.8634
C     -0.6894      6.3665      1.5626
H      5.6162      7.2303     -1.2877
H     19.2414      8.7301     12.6944
C     10.2544      7.3006     12.7228
O     15.5049     10.1910     13.9612
C     -5.8212      8.6379      8.3391
C     16.8841      8.4850     20.0215
C     -9.5576     14.3972      9.7221
C      2.7535      1.1682      4.8953
H     -2.3739     10.4333      2.5303
H     -3.2264     11.1775      1.6255
H     -6.8678     12.5079      6.9025
H      2.4431      6.2638      9.3526
C      4.1772      3.1493      3.4281
H     -2.1511      9.7514      7.8399
C     -2.5583      8.1404      0.9938
C     11.4036      7.0151     11.8635
H     -3.3682     11.6764      5.4221
C      5.4069      2.2102      5.1532
H     17.3137     12.8994     16.9349
C    -10.7283     12.4233      8.8690
C     -8.6424     11.0278      8.2494
C     -2.3424      4.8600      3.9560
C     16.5487      9.7762     19.3504
C      3.0313      3.7161      2.7936
C     -7.6674      7.1961      9.3450
H    -11.3113     11.7151      9.4633
H     15.4831      7.3244     13.4148
H      7.9442      4.3508      4.2418
H      0.4629      3.5036      0.1220
O      5.7734      6.7198      6.3793
C      0.6561      8.1913      4.4776
H     -9.3354     10.7236      7.2838
C     -2.7675      8.5999      3.8657
C     -2.2104      7.3531      3.1712
H      8.5661      2.6632      2.0668
C     -2.6968      8.7580      7.8668
H      2.5932      3.8144      4.9025
H      3.4396      3.8997      0.3942
H     -0.2866      3.8264      9.2615
C      3.3847      1.4493      1.9911
C     -0.3546      8.5570      2.1579
O      4.3333      4.0729      0.2550
O      7.7849      3.8743     10.4424
C      0.1130      2.9841      1.7808
C      0.3922      3.7659      3.7399
C     -6.0047     11.0077      7.2816
H     15.4608      9.8641     19.5728
H     -0.9617      9.9525      4.2680
H     12.7550      8.1878     10.5660
O      0.1916     10.1787      5.8256
C     -7.2869     11.3073      8.1596
C      0.7770      7.2714      6.7153
C     14.4933      7.5945     13.9473
H     15.5321      8.2098     15.7779
C      0.5437      7.6543      3.0676
H     -4.8882     13.3709      9.5449
C      2.3802     -0.0448      3.8771
C      0.5468      2.6139      7.3823
C     -2.8681     11.0481      6.1330
C     -2.1495      3.2413      5.6732
C     17.9839     12.2827     17.4159
C    -10.2460     16.8084     10.1855
C      1.2317      2.1860      1.7759
C     -1.3991      7.7157      1.8173
C     -9.3434     12.2680      8.9033
N      2.3997     -1.3944      4.1763
H      7.3983      2.8161      1.2712
C      3.7876      1.0326      0.3961
O     16.9390      6.1479     15.2869
C      9.8096      6.0784      0.4799
H     -5.6603      9.1675      6.0827
C     -2.5780      4.4278      2.7466
C     -2.9363      8.2934      9.1765
H      8.0075      2.6235      7.4188
H      1.8090      1.0532      7.0811
H     -4.4638      9.8516      6.0852
C     -3.4353      9.3834      1.0058
H     -8.5446      7.1757      8.9372
H      1.1152      7.0946      9.2394
H     -0.6808      9.5408      2.3967
H     13.6199      9.8768     10.5829
H      2.8729      0.4860      0.1227
H     -1.5103      3.7675      7.8417
C     14.8159      7.4943     15.3869
H      3.7016      2.0464     -0.2987
C     13.7066     10.0980     11.7772
H      7.7591      5.2723     10.8974
H      2.9169     -2.0819      3.7633
C      4.3444      8.3901      4.4417
C      7.5949      6.9572      2.8639
C     20.0545      9.8398     14.0690
C     18.6548      7.5933     14.3085
C      4.3107      6.1311      6.3904
C      2.0845      4.9237      2.5921
C      6.2055      5.2095     -0.1583
C      5.5304      7.5097      4.0068
C      8.3224      6.3007      0.4956
H     14.0590     10.9394     11.7970
C      4.1798      5.0925      7.4567
C      1.6906      5.0346      1.1801
H     -3.2125      8.7775      6.8743
C      6.1862      7.0769      5.2059
H      2.1752      2.2760      4.9249
H     -1.6160      4.6075      2.1207
C      7.1341      5.3242      0.8716
H     -0.4679      3.4817      3.9620
O      7.4728      7.1301      5.0918
H      8.2866      8.8825     11.4431
H     20.6200      9.8186     14.8306
H      1.3606      3.2833      3.5218
H      1.9128      4.6832     -0.6830
H      7.9169      2.0651      9.3231
H      4.5915      5.6326      4.2516
C     12.6118      7.8554     11.6477
H      6.0367      4.4133      6.8368
C     15.6551      6.2554     15.8710
H     -0.1963      7.6891      8.6188
C     -2.5610      4.4724      5.4007
C      0.3693      6.8852      5.2344
H     -7.2276      9.1815      9.6345
H      3.7949      1.8000      4.7962
C      1.2660      5.8913      4.8553
H    -11.0024     12.0650      7.9711
H      2.7357     -0.7505      1.9338
H     13.8099      9.9297     16.6525
C     -5.0434      7.4520      8.0565
C     -8.6254     13.8559      8.4617
C      6.1718      7.4542      2.7602
C     -3.5774     10.0129      5.4052
C     -0.1101      6.1525      2.9666
C     -1.4959      6.3442      3.9877
H      1.9119      2.9484      0.1441
H      4.3083      5.5694     -1.3177
H     -1.9245      2.8234      6.6700
C    -11.0923     13.8804      9.1655
H     -1.8494     11.6312      6.3592
C      0.8248      5.1282      3.5814
C      5.4068      3.4370      2.7863
H      1.3120      4.9423      7.9595
C      7.6206      3.9723      9.2955
H     -2.7926     11.4900      8.3024
H     -6.4973     11.2236      6.0549
C      2.0746      7.0220      8.8091
C     -1.8921      5.6827      6.1190
C      2.6647     -0.0069      2.5795
C      0.9367      4.8126      5.8757
C      2.0161      6.6679      7.3123
C      1.5100      3.9703      0.1564
H     -1.3507      5.5549      1.1697
H      4.3735      1.6808      2.5122
H     -2.4100      8.6415     10.0313
H      4.6931      0.3069      0.2214
H      9.2193      2.9556      8.3273
H      7.1008      0.7331      3.9889
C     -0.4364      9.1430      4.9569
C     -4.1388      7.5085      9.1857
H      4.3959      6.3510      0.1484
H     -3.8507      8.6738      3.4630
C     -4.7660     11.5424      8.0336
H     -3.6556      3.8923      2.5136
H     -4.0775     10.1941      4.5302
C     -0.2296      7.5918      7.5342
C      0.4742      3.6939      5.2854
O      8.4891      5.0232      4.1474
C     -1.4778      8.3869      5.7150
C     -6.7336     13.5294      6.9439
C      5.2076      1.5726      6.4190
C      2.9129      0.8158      6.2957
H     -5.6340     13.8825      6.6934
H     -8.3744     15.9779      9.4027
H     -4.8420     11.8047     10.2071
H     -0.1752     11.0108      5.2748
H     18.3959     12.4375     18.4092
C      1.7794      5.0691      7.0637
H      0.2502      4.1551      1.7458
C      3.8040      5.6051      5.0398
C     -9.5914     15.8953      9.2038
H     20.5111     10.5305     13.3450
H      0.3951      6.0791     -0.2044
C      8.3773      7.1091     10.5002
H    -10.4977     17.0647     11.0537
H     11.6391      5.9504     12.0672
C      4.3618      2.9479      4.6461
C     17.4255      9.7876     18.2434
C     -6.6819     12.3991      9.0671
C     -5.9051      9.5959      7.1790
C      5.5724      4.5111      7.7692
C     -7.1605     13.6094      8.5047
H     -0.7576      5.2807      6.7629
H     -4.0006      9.9230      0.3010
H      9.9899      5.1114      0.7656
C     14.5127      9.8858     14.4519
H     -9.6304     17.7070     10.0603
H     -2.1276      9.4185      3.5715
