271

C     19.5807      9.2984     14.0135
C      4.1847      1.5488      7.0449
C      3.0208      3.0725      1.0309
C      7.2379      5.0605      2.7523
H     -3.5734      4.4211      2.2043
C      7.6330      3.6173      2.7883
C      3.0804      3.8494      5.2959
C      6.4602      9.8206     10.8985
C     15.7917      7.1295     19.3881
C      6.1866      2.0235      4.1342
C      6.0225      8.6767     10.0801
C     13.8753      8.6608     13.5517
N     -0.3168      2.8938      6.4020
C      0.9683      6.1170      0.1180
O     -1.4816      1.6784      2.2772
C      3.1667      3.9451      6.9175
H      1.2055      6.5558     -0.8308
C     15.7990      6.1092     17.2494
C     16.3407     10.5923     16.7171
H    -11.2412     12.5983      9.6065
H     -2.2365      2.0153      5.2394
H      6.1308      5.3507      3.1408
H      7.2987     11.6978     10.0363
C     16.5734      9.0948     16.2400
H     15.0282     10.8064     11.8372
H      7.4319      9.9013     11.1215
H      8.1166      3.3751      3.6758
H     12.5643      6.8721     10.7665
H     -0.8459      4.7976      6.6011
C      2.9202      2.4957      7.4869
H      7.2680      1.8507      4.0292
O     14.9823     10.4278     14.8993
C     -4.2286     13.3876      8.2068
C      6.2667      6.1804     10.1622
H      2.5239      5.7873      8.6189
C      6.1685      2.7926      2.7341
H      5.9558      9.8077     11.7224
H     -7.8314     11.1047      6.4972
H      4.0548      8.9495     10.6904
C     17.5416     10.6935     17.8175
C     -2.7635      8.4333      4.9461
O      1.8229      8.3291      4.7011
C     -1.7660      7.4583      6.9623
C      8.2242      8.1084     12.2128
C     20.1231      8.1234     13.2755
C      6.0160      7.4795     -0.5740
H      5.0560      3.9258      1.4211
H     17.5999     10.0621     14.6815
H      0.8850      0.1441      3.3781
H     -4.7259      4.8556      9.5129
H     15.5457     11.2087     17.0247
C      6.4471      7.3939     10.9316
C      8.0672      6.1603      3.7254
H     20.3361     11.0165     13.1957
C     -1.0359      6.2881      4.8768
H     14.6415      8.2988     20.6700
H      4.1858      0.1785      2.5944
H      6.3417     10.4231      9.3030
H     17.0813      5.9727     14.3387
C     -2.5536     11.4946      7.1124
C      5.3732      6.1339      9.1213
C     15.8679      7.2913     17.9126
C      4.7642      5.6679      0.1098
C     17.5701      9.1019     15.2901
H     -3.2193      7.5423      4.7003
H      8.5496      8.2789      3.6234
H     -8.4229     14.4337     10.4390
H     -5.6641     13.0355      9.5996
C     -0.2183      3.0311      8.9286
C     13.2072      8.4145     12.0105
C      1.5636      1.5162      7.0500
C     -0.4629      6.3690      1.1590
H      5.0041      7.9257     -0.5013
H     -3.2332      3.8703      5.3570
H      6.1205      4.5334      6.0382
H      5.4949     11.9224     10.5538
C      9.8062      7.7920     12.7000
O     14.7431     10.9374     12.7126
C      6.6112      8.6785      8.6064
C     15.7324      8.1742     20.3419
C     -9.5251     14.1634      9.7230
C      3.4849      1.5764      4.7055
H     -2.4799     10.4638      2.1151
H      3.6976      6.3897     -0.0502
C      3.8753      3.5231      3.2688
H     -4.2320      8.9770      6.1633
C     -2.3169      8.4628      0.7804
C     10.7033      7.2396     11.5993
H      0.1308     10.1612      5.6721
C      5.2949      2.7069      5.1827
H     17.6973     12.5356     16.5694
H      7.8331      3.4867      1.7366
H     -4.1032     14.5686      8.0432
C     -9.8705     12.1385      8.4413
C     -7.3785     11.7700      7.2777
C     -1.9716      4.9337      3.1947
C     16.2595      9.6453     19.6479
C      2.6189      3.5414      2.3760
C      4.7094      8.8898      9.8767
H    -10.4245     11.5507      7.6610
H     15.7341      7.6000     13.3187
H     -2.0836      5.1246      1.1921
H     12.9845      9.3244     11.5830
H      2.0517      3.0962     -0.5593
O      5.2131      7.0650      6.4949
C      0.5555      7.8397      4.3332
H     16.4638     10.6001     20.0812
C     -2.3141      8.3951      3.5911
C     -2.0989      7.4061      2.7347
H      5.9488      9.5418      8.0498
C     -3.0383      7.0988      7.4933
H      1.4818      2.4641      5.2352
H     15.2778      7.5410     11.8320
H      6.4610      1.8663      2.3253
H     -0.8130      3.8523      8.4975
C      3.7064      1.6906      1.0494
C      0.0682      8.5876      1.8384
C     -1.6404      2.9431      1.3553
C     -0.0863      3.7813      3.9384
C     -5.0539     11.6823      6.8062
H      1.5553      0.6513      4.8567
H     -3.5595      7.4180      6.5274
H     15.6371      9.9310     18.7731
H      1.4330      6.8632      0.6823
O      0.1880      9.2009      6.3193
C     -6.1026     12.2477      7.4880
C      0.4681      6.7343      6.6542
C     15.0575      7.9574     14.0683
H     15.8199      8.1100     15.8783
C      0.5238      7.6914      2.9430
H     -3.5407     13.2571      9.1354
C      2.7647      1.1312      3.4952
C      0.2659      2.4455      7.3960
C     -2.3836      9.8148      6.9001
C     -2.5856      3.0948      4.8044
C     18.2694     11.7625     17.2690
C     -9.4832     16.6065      9.5696
C     -0.2757      3.4992      0.9803
C     -1.2503      7.6520      1.5006
C     -8.3368     12.1720      8.1433
N      1.7566      0.2924      3.9562
H      3.4654     -0.3252      0.4352
C      3.1654      0.9117      0.0469
O     17.0258      6.2762     15.4232
C      9.3555      6.5871      0.6998
H     18.2355      9.3166     19.4591
H      1.6931      0.6326      7.7574
C     -2.3848      4.2842      1.9060
C     -2.9243      7.1751      9.1677
H      1.9844      1.2916      6.1541
H      7.9027      4.8513      0.6019
H      8.0042      9.6203      7.3684
C     -2.7839      9.4366      1.5356
H      4.3828      8.1372      9.1096
H     -2.4177      5.3327      6.3247
H     -0.4260      9.3068      4.2444
H     14.3258      7.6988     10.6030
H      3.8150      0.9530     -0.9764
H      0.8760      3.2339      9.3781
C     15.0030      7.4168     15.4869
H      4.4998      6.7621      9.0975
C     14.7779      8.1998     11.3804
C      6.3836     11.1202     10.1504
H     -9.3774     16.5425     10.6578
H     16.6628     11.2024     15.8740
C      4.1908      8.2371      4.6301
C      7.9043      7.4664      3.2600
C     20.0713     10.4688     14.2583
C     18.8790      8.5249     15.2349
C      4.0494      6.0733      6.3833
C      2.0155      4.9330      2.2902
C      6.1191      6.1346      0.1903
C      5.5276      7.2895      4.2553
C      7.9207      6.9868      1.3019
C      4.2233      5.0105      7.3962
C      1.8148      5.0321      0.8550
H      8.0984      7.2120      5.3547
C      6.0612      7.1644      5.6325
H      9.4805      5.7312      0.0431
H      0.5207      2.6793      1.0836
C      7.2091      5.6153      1.2293
H     -0.0692      2.8767      3.3249
H     -2.3378      6.2833      9.3047
O      7.2903      7.5905      5.8381
H      8.4043      9.1195     11.9131
H      1.7670      2.9174      2.9817
H     -0.3925      9.4771      2.2524
H      4.3857      4.8815     -0.6388
H      4.8630      5.4460      4.5205
C     12.0091      7.4986     11.4859
H     -5.2560      6.0088      8.1614
C     15.7315      6.1310     15.7213
H      0.8097      5.4980      8.8452
C     -1.5303      4.0845      4.3932
C      0.3955      6.5802      5.1725
H      4.7710     10.1098      9.6834
H      3.1911      0.0536      5.9745
C      1.3937      5.6109      4.5599
H      2.6004     -0.2094      2.0416
H     -0.6062      6.2619      8.6193
C     -5.2931      5.9135      9.3655
C     -8.2441     13.6293      8.4843
O      6.2675      3.8840      5.3039
C      6.4126      7.7616      3.2209
C     -3.3137      9.3960      5.7485
C     -0.1062      6.2117      2.7079
C     -1.4058      6.1389      3.3967
H     16.5333      7.8785     21.0828
H     15.1451      9.1278     10.8574
H     -3.1802      2.5786      4.0610
C    -10.2363     12.9090      9.4602
C      0.6025      5.0276      3.1419
C      4.8940      3.7154      2.4265
H      0.9909      4.0933      7.4043
H      8.4957      8.1824      7.6283
H     -2.0460     11.8607      5.9974
H     -5.2086     10.7572      6.4064
C      1.6233      6.1338      8.6262
C     -1.6184      5.2149      5.5617
C      3.2497      0.7799      2.1950
C      1.6253      4.3998      5.4234
C      1.6547      6.2523      7.1441
C      2.2871      3.9462      0.1431
H     -0.9293      5.4631      0.9041
H      4.7154      1.7658      1.1149
H     -2.2381     10.9373      8.2040
H      2.1734      1.1980     -0.3245
H     -0.9925      2.2794      3.1397
H     -2.8349      9.5516      7.8328
H      5.6565      0.9335      4.2427
C     -0.4799      8.6190      5.1709
C     -4.2949      6.8315     10.0197
H     19.1469     10.7969     14.9670
C     -3.8679     12.2903      7.1952
H      9.9526      6.5628      1.5771
H     -3.5991     10.2616      4.9581
H     -6.4961     14.8049      9.6879
C     -0.4729      6.9730      7.6319
C      0.5946      3.0971      5.2000
O      8.9590      5.9118      4.4783
C     -1.5983      7.7289      5.5102
C     -6.7361     14.9693      7.5744
C      5.2803      2.2293      6.6263
C      3.7705      0.8309      5.7041
H      6.2356      7.7494      8.2813
H      5.7908      4.2235      8.9275
H      8.1286      9.4764      9.0725
H     -1.3784      9.4589      7.2035
C      1.7367      4.7593      6.8261
H     -2.2443      3.0107      0.5571
C      3.8363      5.2750      5.0782
C     -9.6723     15.4493      8.9881
H     21.1554     10.6888     15.0033
C      7.8864      7.4463     10.9656
H      3.6084      5.5450      8.2296
H     10.1339      6.8588     10.6187
H     -5.7171     15.4357      7.6227
C      4.0355      2.9695      4.5333
C     17.5037      9.3699     18.6273
C     -5.6593     13.1169      8.6260
C      7.9798      8.9443      8.2722
C      5.4530      5.0827      8.0013
C     -6.8557     14.2112      8.7922
H     -0.6583      2.4343      9.6444
H     -2.7797      8.3730      9.6032
H      0.1984      4.1826      1.5085
H     18.6053      9.7052     13.3380
H     -0.1159      3.7042     -0.0857
C     14.4347     10.0801     13.8160
H     -9.9711     17.6577      9.1165
H     -2.2746      9.3568      3.0872
