265

C     19.4056      8.6517     13.6865
N     -1.9103     10.8763      1.7607
C      3.7466      1.4901      6.9867
C      2.3424      2.5009      1.3857
C      7.3799      5.0226      2.0037
H     -3.2349      7.1938      2.5472
C      7.4338      3.6290      2.4918
C      3.3536      3.8132      5.4304
C     16.1578      7.1540     19.4569
C      5.9605      1.9412      3.9805
C     -7.3739      8.2579      9.5249
C     13.8727      8.8279     13.6711
N     -0.0637      2.7884      6.2589
C      0.1920      5.9120      0.3300
O     -1.5931      2.5975      1.0594
C      3.1473      4.0463      6.9123
H     -0.1398      5.0671     -0.1773
C     15.6078      6.0834     17.3153
C     16.3545     10.2463     16.5701
H    -11.8251     13.8898      9.8874
H     -3.3197      3.0785      4.5432
H     17.0182      5.6376     15.3401
C     16.9606      8.8121     16.3510
H     -8.6060      7.2168     10.8806
H     -6.7295      8.4026     10.4333
H     -0.8971      5.0165      6.5863
H      7.6146      2.2998      8.3973
C      2.9287      2.6063      7.8169
H      7.2224      1.8938      4.1145
O     14.0070     10.9679     15.1435
C     -4.8167     12.7696      8.3502
C      6.4870      5.8226      9.8164
H      1.9072      0.2132      6.4745
C      6.2188      3.2293      3.3746
H     -7.7916     10.8120      9.8412
H     -9.2164      7.6934      9.2367
C     17.2457     10.8624     17.4967
C     -2.7590      8.6261      5.1062
O      2.0230      8.6665      4.7968
C     -1.6199      8.2727      7.0996
C      8.4845      8.3468     11.8135
C     20.3145      7.9751     12.7147
C      6.4681      7.0655     -0.9676
H      4.6098      3.8569      1.5715
H     17.2567      9.4901     14.4940
H      2.2229     -1.7452      3.7653
H     -4.2321      6.5483      7.4504
C      8.0522      2.8737      9.3236
C      7.2005      6.5285     10.8859
C      7.7759      5.6981      3.2202
H      7.9292      7.4640      1.9046
C     -1.0064      6.7514      5.1540
H     16.1769      8.4754     21.0728
H      3.4880     -0.8412      2.2779
H     15.5820      6.8581     13.3809
C     -2.9813     11.8221      7.2321
C      6.2350      4.7093      9.0345
O      5.7342      2.9113     10.3313
C     16.1199      7.4402     17.8212
C      4.9901      5.2560     -0.4790
C     17.3560      8.7021     15.0471
H     -3.1672      7.7880      5.2537
H      8.2414      8.0958      3.4856
H     -9.0142     14.4471     10.6162
H     -6.3214     12.3706      9.8957
H     17.6387     12.9126     16.5410
C      0.2955      3.6156      8.6987
H     20.5605     10.2418     13.6548
C     12.8535      8.6629     12.2271
C      1.5535      1.8294      7.9128
H     -1.8604      7.7741      9.8147
C     -1.0135      6.2659      1.3706
H      5.4220      7.6981     -1.2443
C      9.8174      7.6867     12.4000
O     15.6536     10.4111     13.3691
C     -6.5193      8.4849      8.5251
C     16.7681      8.3695     20.1050
C     -9.6011     14.3340      9.6266
C      2.9448      1.2988      4.9155
H     -2.4279     11.7839      1.8723
H     -7.0222     11.7852      7.2317
H     -8.8542     17.5694      9.3581
C      3.6920      3.1984      3.3566
H     -4.1615      9.9267      6.4222
C     -2.3408      8.6577      0.6343
C     10.8375      7.3554     11.2670
C      5.0077      2.2107      5.0431
H      3.6167     -0.4209      6.2183
H     -1.8338      1.7094      0.3000
C    -10.3930     12.3334      8.7940
C     -8.1247     11.0237      8.6931
C     -2.3431      5.1582      3.4663
C     16.4610      9.6479     19.3327
C      2.3350      3.4855      2.7118
C     -8.4551      7.3001      9.7888
H     16.0847      8.2846     13.9657
H      9.5054      5.1108      4.2648
H      2.4758      4.7788     -0.7013
O      5.5314      6.4826      6.6435
C      0.6225      8.2812      4.4604
H     -8.7392     10.3457      8.2489
C     -2.6488      8.9417      3.5690
C     -2.1186      7.5326      2.8937
H     -6.6723      8.4986      7.5855
C     -2.6822      8.6695      7.7550
H      2.1813      3.5899      5.1791
H     13.5545      8.4722     10.6087
H      4.3502      3.6957     -0.0926
H     -0.5407      4.5871      8.5931
C      3.3033      1.2886      1.6820
C     -0.0386      8.4127      1.8484
O      5.1535      3.9562     -0.5354
O      7.6451      4.1164     10.9868
C     -0.1732      2.8959      1.0220
C     -0.3953      4.0701      4.1614
C     -5.6254     10.7128      7.4771
H     -3.4644      7.8474      7.7087
H     15.9433     10.4920     19.7275
H     -1.3106      9.8289      4.5120
H      0.2533      6.6920     -0.5131
O      0.4070      9.7529      6.1233
C     -6.7586     11.4625      8.0800
C      0.6891      7.3718      6.9949
C     15.2284      7.7536     13.8740
H     15.3393      8.2729     15.5774
C      0.5226      7.6036      2.9055
H     -4.1222     13.4266      8.8589
C      2.6200      0.1665      3.9187
C      0.2750      2.5754      7.7561
C     -2.2891     10.9269      6.3435
C     -2.3710      3.1209      5.0276
C     17.8726     12.0567     17.3430
C     -9.5551     17.0185      9.9981
C      0.9533      2.1750      1.2565
C     -1.4405      7.8151      1.5998
C     -9.0098     12.3027      8.6567
N      1.9755     -0.9806      4.3830
C      4.2316      1.2034      0.5731
O     16.6634      6.4458     15.1386
C      9.4770      6.4390      0.0739
H     -0.4425      1.8486      7.9724
C     -2.8208      4.6695      2.3715
C     -2.8679      8.2863      9.1659
H      8.4097      2.0147      9.9587
H      1.6395      1.3408      6.9143
H      7.1751      3.9497     11.8397
H     -5.8277     10.5442      9.3162
C     -2.6733      9.9078      1.0091
H     -8.1092      6.1859      9.5182
H      2.0717      7.5604      9.6762
H      0.0396      9.4939      2.0906
H     14.5825      9.7367     11.3883
H      4.1347      0.1577      0.0143
H      1.2835      3.7954      8.9237
C     14.7581      7.4621     15.3087
C     13.3843      9.2166     11.1547
H      5.4902      2.8604     11.2448
H     15.3067      9.9102     17.1188
C      4.4276      7.8914      4.4266
C      7.5680      7.1841      3.0164
C     20.5989      9.4812     14.3646
C     18.4688      7.9494     14.6761
C      4.2104      6.1274      6.3930
C      1.8254      4.9431      2.6012
C      6.3158      5.8233     -0.2021
C      5.5196      6.8274      4.2067
C      8.1845      6.6227      0.4829
C      4.3212      4.7146      7.4800
C      1.4211      5.2295      1.0253
H     -2.3546      5.9055      6.3646
C      6.2818      6.3472      5.3305
H     -1.6415      2.2706      4.8039
H     -3.3123      5.6093      1.8283
H      0.6538      1.0316      0.9343
C      7.1354      5.7626      0.8139
H     -0.5470      3.1999      3.6638
O      7.4883      6.8488      5.8705
H      8.8947      9.3559     11.4267
H     20.3455      9.2625     15.4945
H      1.8544      3.1610      3.6489
H     -1.0784     11.1358      2.3971
H      3.3885      4.4670      0.8943
H      4.6932      5.2769      4.0632
C     12.1484      7.6133     11.8381
H      6.2878      5.2726      4.8087
C     15.4067      6.1756     15.7641
H      1.5782      5.6698      8.9804
C     -1.7046      4.3871      4.6195
C      0.3798      7.0346      5.2601
H     17.8138      8.2845     19.9139
H      1.9532      1.7810      5.0294
C      1.3402      5.7673      4.9532
H    -11.1271     11.5327      8.3507
H      1.7430     -0.3065      2.0753
H     15.8623     10.5558     15.6596
H     -0.1760      8.0610      8.8356
C     -4.5770      6.9991      8.3630
C     -8.4032     13.6620      8.2104
C      6.0940      7.3679      3.0384
C     -3.3705     10.0043      5.6124
C     -0.2696      6.2341      2.9081
C     -1.5708      6.6542      3.7505
H     -2.9401      3.0075      5.9068
C    -10.9774     13.9769      9.1453
C      0.6073      5.1735      3.5560
C      4.9387      3.4925      2.6781
H      1.9419      4.2576      8.0299
H     -4.5365      9.1966      8.4121
C      6.6942      3.5970      9.7267
H     -2.3605     12.3490      8.0234
C      2.2162      6.5775      8.7779
C     -1.5342      5.4960      5.7470
C      2.7904      0.0212      2.4445
C      1.0115      4.7527      5.9465
C      1.8044      6.5810      7.2887
C      2.4431      4.5324      0.4501
H     -1.7267      5.4380      1.3362
H      4.0191      1.8624      2.1799
H      5.0668      1.6753      1.0822
H     -5.8013      6.5847      8.1560
H      8.3354      3.8719      9.4130
H      5.7753      1.3914      3.1220
C     -0.2847      9.2677      5.0751
C     -3.9557      7.5275      9.4452
H      4.4137      5.9403      0.3583
H     -3.6729      8.8003      3.3208
C     -4.4091     11.6421      7.4415
H     -3.5990      4.0007      2.0289
H     -3.8783     10.4246      4.8113
H     -6.7735     14.6620      9.1993
C     -0.3191      7.9641      7.7673
C      0.2342      3.7102      5.4584
O      8.4473      5.2876      4.4812
C     -1.4141      8.2440      5.6291
C     -6.5546     14.2725      6.8748
C      5.1280      2.1488      6.4532
C      3.0169      0.5014      6.2899
H      8.1996      6.9202      5.1800
H     -5.6676     14.9212      7.2720
H     -8.2811     15.8167      9.1313
H      1.5817      9.4770      6.0352
H     18.3887     12.5805     18.2351
C      1.8482      4.9471      7.1080
H     -0.2520      3.9513      0.9491
C      3.8994      5.1810      4.8967
C     -9.3934     15.7612      9.2455
H     21.6206      9.0315     14.5739
C      8.2820      7.4401     10.6909
H    -10.5606     17.3451      9.9809
H     10.4261      6.4176     10.7924
H     -6.2741     13.2238      6.5992
C      3.6977      2.5692      4.6400
C     17.5039     10.0062     18.6378
C     -6.1592     12.7463      8.6806
C     -5.6564      9.7467      8.5811
C      5.2906      4.4726      8.1687
C     -6.9710     13.9166      8.3251
H     -0.1943      3.2897      9.8147
H      2.6777      2.8932      0.5413
H     18.9146      9.1520     12.9514
H      9.7330      5.4926      0.0052
H     -0.8837      2.0738      5.7937
C     14.5951     10.1499     13.8941
H     -9.0916     16.7682     11.0244
H     -2.4459      9.8570      3.2757
265

C     19.5893      8.6864     13.5969
N     -1.8592     10.9273      1.7368
C      3.9964      1.3437      7.1255
C      2.2211      2.4341      1.4855
C      7.3836      4.8472      2.2877
H     -2.9063      7.0310      2.6570
C      7.0735      3.4912      2.4171
C      3.2760      3.8886      5.4549
C     16.1243      7.1586     19.4219
C      5.8181      2.0210      3.9344
C     -7.2586      8.2624      9.6778
C     13.8068      8.8980     13.4337
N     -0.1366      2.6268      6.3842
C      0.1529      5.7545      0.5687
O     -1.4554      2.5730      1.1509
C      3.1329      3.8590      6.9528
H     -0.2229      5.2249     -0.2459
C     15.7567      6.2406     17.3658
C     16.3979     10.2682     16.5147
H    -11.5551     14.0958      9.8648
H     -3.4198      3.2093      4.3428
H     17.1809      5.5061     15.4940
C     17.0324      8.8422     16.3701
H     -8.8093      6.9416     10.8585
H     -7.0270      9.0578     10.5884
H     -1.0101      5.5710      6.9353
H      8.1954      2.7445      8.1912
C      3.0006      2.5251      7.6430
H      6.9091      1.3140      4.0824
O     13.9356     10.8592     14.8086
C     -4.7327     12.7944      8.3920
C      6.5787      5.8157      9.7471
H      1.9824      0.3235      6.4900
H      3.2355      6.0819      8.7022
C      6.3379      3.4098      3.4180
H     -7.7147     10.7508      9.5287
H     -8.9709      7.8811      9.6547
C     17.3521     10.9944     17.4068
C     -2.7273      8.5976      5.0814
O      2.1101      8.5161      4.8632
C     -1.2567      8.3580      7.1019
C      8.5676      8.3712     11.8625
C     20.2990      7.6805     12.7472
C      6.4712      6.9405     -0.9744
H      5.3376      3.8100      1.4459
H     17.2651      9.4594     14.4491
H      1.2631     -1.4878      3.9851
H     -3.7315      6.1625      8.0054
C      8.0158      2.8323      9.3768
C      6.9804      6.7626     10.5835
C      7.8379      5.8049      3.2058
H      8.0571      6.8270      1.7987
C     -1.2420      6.8203      5.0707
H     16.4878      8.3340     21.2683
H      3.2938     -0.6894      2.2121
H     15.5980      6.7677     13.0546
C     -2.9857     11.7483      7.1387
C      6.2683      4.8377      9.0841
O      5.6338      2.9286     10.5111
C     15.9032      7.4796     18.1309
C      4.9535      5.5025     -0.4365
C     17.4352      8.6478     15.0215
H     -3.3747      7.7899      5.4187
H      7.9199      8.1246      3.5771
H     -9.1771     14.4858     10.5444
H     -5.6721     13.2662      9.6873
H     17.6329     12.9510     16.5897
C      0.3352      3.5634      8.8110
H     20.6928     10.5148     14.0948
C     12.9378      8.8293     12.3618
C      1.6801      1.8841      7.8830
H     -1.8941      8.4869      9.6915
C     -0.8976      6.1195      1.4511
H      5.2924      7.3347     -0.9447
C      9.9135      7.9094     12.2839
O     15.6436     10.4995     13.2387
C     -6.5632      8.6502      8.5589
C     16.6614      8.3405     20.1600
C     -9.4275     14.3429      9.5428
C      2.6537      1.3211      4.8091
H     -2.3852     11.7641      1.5514
H     -7.4380     12.1653      7.1003
H     -9.4263     17.9112      9.8298
C      3.7436      3.2713      2.9999
H     -4.3008      9.7264      6.2214
C     -2.3344      8.5960      0.8562
C     11.0271      7.4625     11.2458
C      4.9176      2.1494      5.0303
H      3.4245     -0.3308      5.8658
H     -1.5290      1.4353      0.7135
C    -10.4787     12.4712      8.8527
C     -8.0446     11.0065      8.6243
C     -2.2726      5.1979      3.4545
C     16.4653      9.5797     19.4982
C      2.3044      3.4344      2.7428
C     -8.3276      7.1790      9.8539
H     15.8496      8.3517     13.4869
H      9.2113      4.8696      4.3021
H      1.8575      3.5917     -0.2304
O      5.5951      6.6286      6.4240
C      0.6001      8.1864      4.3926
H     -8.3920      9.9895      8.4705
C     -2.7111      8.7953      3.5674
C     -2.1834      7.7596      2.8736
H     -6.5275      8.2382      7.4806
C     -2.6088      8.4533      7.7063
H     13.4694      8.7053     10.1735
H      4.5398      3.4269     -0.8759
H     -0.3308      4.6768      8.6462
C      3.0702      1.1720      1.7227
C     -0.0740      8.6302      1.7962
O      5.1823      3.9599     -0.4125
O      7.5092      4.2867     11.0299
C     -0.2034      2.9261      1.2371
C     -0.2905      4.1795      4.1178
C     -5.6661     10.6527      7.5692
H     -3.5309      7.9302      7.1707
H     15.5051      9.9456     19.8646
H     -0.6148     10.3632      4.6945
H      0.2678      6.5421     -0.2147
O      0.2776      9.7207      6.2318
C     -6.9055     11.6725      7.9464
C      0.6189      7.2239      6.7613
C     15.1368      7.5542     13.6901
H     15.3343      8.4328     15.7696
C      0.5626      7.7616      2.9226
H     -4.4000     13.7955      8.5304
C      2.3960      0.1395      3.8141
C      0.2899      2.4925      7.6970
C     -2.4429     10.9403      6.1089
C     -2.5147      3.1232      4.9588
C     17.8963     12.2057     17.4897
C     -9.6377     16.8986      9.9811
C      0.8221      2.0204      1.2074
C     -1.4597      7.6659      1.5507
C     -9.0177     12.2240      8.6801
N      2.0269     -0.8994      4.3026
C      4.2436      1.2068      0.7499
O     16.8204      6.2512     15.2059
C      9.4626      6.5402     -0.0257
H     -0.4958      1.9427      8.1346
C     -2.9975      4.6572      2.2796
C     -2.6813      8.4285      9.0933
H      8.1274      2.0687     10.1158
H      1.6837      0.9711      7.1781
H      7.3144      4.1257     12.0014
H     -5.5903     10.3172      9.6941
C     -2.4952      9.9568      1.1969
H     -8.6111      6.3213      9.0853
H      1.7514      7.8128      9.0377
H     -0.1507      9.5481      2.3474
H     14.6656      9.5154     11.4245
H      4.3625      0.2305      0.1143
H      1.1176      3.8427      9.4230
C     14.9111      7.5308     15.2187
C     13.4690      9.3405     10.9733
H      5.8196      3.3328     11.3966
H     15.4464     10.0634     17.3394
C      4.4948      7.8380      4.5640
C      7.4091      7.1442      2.9611
C     20.5516      9.3959     14.2593
C     18.6964      8.0298     14.7976
C      4.3749      5.8803      6.2093
C      1.7292      5.0014      2.6283
C      6.2626      5.8036     -0.1406
C      5.4710      6.9024      4.1693
C      8.2150      6.6350      0.6242
C      4.3013      4.8130      7.2006
C      1.2992      5.1873      1.1522
H     -2.8982      5.5144      5.9454
C      6.3849      6.3798      5.3454
H     -1.8655      2.1956      4.6370
H     -3.3916      4.9898      1.2651
H      0.6867      1.0499      0.8873
C      7.0514      5.5195      0.9792
H     -0.3729      3.6741      3.1641
O      7.5677      6.9145      5.8950
H      8.6950      9.3322     11.2116
H     20.3318      9.6579     15.3957
H      1.5937      2.9732      3.2967
H     -1.2318     10.6584      2.5626
H      3.1801      4.5984      0.9524
H      4.8504      5.3800      4.3843
C     12.2005      7.5656     11.7720
H      6.5570      5.3115      5.1830
C     15.6048      6.4572     15.9120
H      1.7473      5.9660      9.5047
C     -1.8189      4.5303      4.6671
C      0.3938      7.0019      5.3734
H     17.7290      8.0947     20.2751
H      1.7357      1.7451      4.9485
C      1.2669      5.8975      4.8377
H    -11.4770     11.9088      8.5256
H      1.6390     -0.0716      2.0768
H     15.9747     10.5104     15.6749
H      0.0633      7.7522      8.6748
C     -4.5511      6.8218      8.1883
C     -8.5368     13.6959      8.3721
C      6.0846      7.4292      3.0302
C     -3.4230      9.8881      5.4804
C     -0.2881      6.1997      2.8564
C     -1.4261      6.5009      3.6184
H     -2.4035      3.0211      6.0762
C    -10.8484     13.8181      9.1246
C      0.6827      5.1350      3.6714
C      4.9030      3.3317      2.4479
H      1.0313      4.6162      7.9998
H     -4.6751      9.0309      8.9957
C      6.7870      3.5073      9.8417
H     -2.4536     12.6454      7.6667
C      2.1921      6.6336      8.7004
C     -1.7396      5.6006      5.8285
C      2.5687      0.0727      2.3780
C      0.7981      5.0061      6.0886
C      2.0672      6.4985      7.2198
C      2.2485      4.5992      0.3498
H     -1.7239      5.3245      1.4177
H      3.4466      1.6297      2.8881
H      5.1668      1.6078      1.0757
H     -5.1105      6.1334      8.9026
H      8.9861      3.2589      9.3046
H      5.2512      1.5787      3.1328
C     -0.4959      9.2229      5.0299
C     -4.0540      7.4897      9.4477
H      4.1335      5.7023      0.2744
H     -3.7958      8.8452      3.2048
C     -4.4282     11.8274      7.6117
H     -3.3708      3.7989      2.7649
H     -3.8348     10.2383      4.6026
H     -6.7446     14.8832      8.9427
C     -0.0926      7.9900      7.6918
C      0.3117      3.7608      5.5271
O      8.3527      5.4666      4.4158
C     -1.4126      8.3614      5.6746
C     -6.3974     14.2816      7.0530
C      5.2287      2.1015      6.4501
C      3.0101      0.6181      6.0530
H      8.2911      6.9602      5.2317
H     -5.3186     14.7262      7.2736
H     -8.3713     15.9242      8.6680
H      1.1860      9.2267      6.6567
H     18.5727     12.1244     18.3854
C      1.8987      4.8530      7.1591
H      0.1042      3.8433      0.8853
C      3.8919      5.2117      5.0087
C     -9.4918     15.6709      9.0483
H     21.5474      9.0799     13.9511
C      8.2250      7.4514     10.6732
H    -10.5014     17.2377     10.3515
H     10.7652      7.0079     10.4628
H     -6.1860     13.4843      6.2112
C      3.6045      2.5869      4.5800
C     17.3075      9.9886     18.4876
C     -6.2041     12.7394      8.9050
C     -5.5850      9.7037      8.6981
C      5.1721      4.1875      8.1382
C     -7.0320     13.9243      8.3113
H     -0.1531      2.7047      9.5459
H      3.0115      2.8783      1.0234
H     19.0557      9.3354     13.1080
H     10.0784      5.7523     -0.1663
H     -0.1089      1.5500      5.9819
C     14.6559     10.0661     13.9691
H     -9.2338     16.8427     11.0062
H     -2.4223      9.7277      3.4761
