268

C      7.1286      9.1046      0.9401
N     -2.1152     10.9772      1.3516
C      3.9566      1.3841      6.9494
C      1.8795      2.8684      1.8620
C      6.8634      5.0029      2.0395
H      8.9828     -7.9749      3.0321
C      7.2435      3.6951      2.5098
C      3.4596      3.7856      5.4833
C      3.3186      7.1882      6.5243
C      6.3084      1.7204      3.6552
C      5.5864     -4.4181      9.4920
C      1.1267      8.4708      0.9334
N     12.4138    -10.0439      6.3476
C      0.3274      5.4194      0.5030
O     -1.7026      2.4928      1.5807
C      3.2829      4.1654      6.9205
C      2.7318      6.2568      4.6202
C      3.7390     10.4846      4.0290
H      0.7931      0.4732      8.6839
H      9.0846     -8.8319      5.3426
H      4.9138      6.3288      2.5540
C      4.0539      9.0587      3.2316
H      4.5737     -5.6048     10.8263
H      5.7261     -3.5246     10.1448
H      8.0172      3.8773      3.4444
H     -0.4147      7.0589     -2.3849
H     12.2816     -7.6248      6.5370
H      7.8843    -10.4706     10.7784
C      2.9236      2.7646      7.5664
H      7.3241      1.3370      3.4085
O      1.2046     10.8948      1.8963
C      8.1391     -0.2640      8.4965
H      5.0970     -9.8838     10.0313
C      6.8996     -6.9217     10.0110
H      2.3050      0.1067      6.3929
H     15.6345     -4.9431      8.8423
C      6.2165      2.8342      2.5769
H      6.5044     -7.4637      7.6949
H      4.5975     -2.5615      9.1215
H      5.0865     -6.2907      8.7409
C      4.6181     11.1599      4.9162
C     10.0919     -4.5832      4.8789
O     14.8008     -4.1149      4.7196
C     11.4765     -5.0705      7.0057
C      8.6143     -4.6493     12.1059
C      7.5761      7.7921      0.1275
C      6.3160     -5.7902     12.0235
H      4.3658      4.1215      1.6907
H      4.2038     10.0340      1.5103
H      1.7350     -1.3838      3.1333
H      7.9553     -6.1571      8.0548
H      0.3445     11.1780      2.7119
C      7.7368     -9.8958      9.8805
C      7.2769     -6.2086     11.0383
C      7.1529      5.9367      3.0347
H      8.5553      8.0024      2.5904
C     11.9555     -6.1634      5.1651
H      1.7820      0.2088      1.3479
H      2.5916      6.2971      0.6678
C      9.6876     -1.4131      7.0657
C      5.9551     -7.8431      9.5303
O      5.5357     -9.8313     10.8746
C      3.1833      7.7005      5.1111
C      4.3468     -7.0502     12.8986
C      4.6427      9.0377      1.9701
H      9.4309     -5.3109      4.9940
H      8.0236      7.6734      4.1164
H      3.6643      1.3175     10.3419
H      5.6137     -1.0619      9.5040
H      5.0733     12.2354      3.5610
C     12.3195     -9.3284      8.5164
C      0.4696      8.4627     -0.7113
C      1.4462      1.9409      7.4224
H     10.6899     -4.3359      9.4946
C     -0.4425      6.2629      1.5268
C     -2.7357      7.5684     -0.1056
O      2.5068     10.3573      0.1302
C      6.7918     -4.4276      8.6212
C      4.0375      8.2140      7.3314
C      3.1287      1.3927      9.2990
C      3.1020      1.3535      4.6556
H     -2.3727     11.7233      0.5176
H     -3.0020      9.8818     -0.4153
H      5.7426     -0.7261      6.9034
H      3.2668      3.6721     11.0427
C      3.7998      3.2581      3.3617
H      8.4006     -3.9500      6.1251
C     -1.8953      8.5804      0.6146
C     -1.9278      7.1249     -1.0982
H      9.7958     -3.4952      7.5444
C      5.5105      1.7522      4.8613
H      3.9619     -0.1211      5.4506
H      8.6078      0.6742      8.5270
C      2.3616     -0.5834      8.4692
C      4.6224     -1.8096      8.3001
C     10.9525     -7.9160      3.5917
C      3.8311      9.4709      6.4175
C      2.4030      3.6670      3.0507
C      4.9312     -5.6282      9.6624
H      3.3756      7.6824      0.8676
H      9.9174     -9.2422      2.2982
H      1.9004      5.1520     -0.9760
O      5.5244      6.6832      6.4014
C     13.5832     -4.8286      4.5024
H      4.2337     -2.4873      7.4127
C     10.4140     -4.2383      3.4916
C     10.9420     -5.3344      2.8298
H      6.7581     -4.9875      7.5904
C     10.1098     -5.1965      7.7278
H      2.4870      3.4980      5.5164
H      0.8903      9.1195     -2.8763
H     11.9858     -9.6212      9.5668
C      2.9612      1.9616      1.1227
C     12.9119     -4.4709      1.9143
O      7.4264     -8.8274     11.6284
C     -0.4890      3.0302      1.7176
C     13.1664     -9.2844      4.0452
C      7.2296     -2.3530      7.6203
H      9.3220     -5.5295      7.2189
H      2.7776      9.6090      6.1536
H      0.0364      5.4768     -0.5833
O     13.0255     -3.0983      6.0399
C      5.9741     -1.3629      7.7783
C     13.6376     -5.5749      6.8472
C      2.2950      7.4780      1.1114
C     13.5751     -5.2003      3.0062
H      8.6809     -0.6907      9.5175
C      2.5821      0.3667      3.3986
C     12.7606    -10.4536      7.6010
C     10.1360     -2.8018      6.7510
C     10.1016     -9.3546      5.1659
C      5.1668     12.3267      4.6127
C      3.2091      3.8144      9.9426
C      0.6849      2.3338      1.2962
C     -1.2192      7.8104      1.5442
C      3.7056     -0.6377      8.3526
N      2.0368     -0.6881      3.8842
C      3.4313      1.8797     -0.3963
O      3.9526      6.0756      2.1687
C      9.7003     -6.2835     13.6719
H      5.8225     10.3710      6.2458
H     11.9557    -11.2199      7.6680
C      9.8596     -8.2713      2.6544
C     10.0010     -4.8933      9.0418
H      8.2050     -8.9123      9.8800
H      1.1024      1.1448      6.5174
H      7.2767     -8.0185     13.1534
H      8.7780     -4.0826      8.3835
C     -2.4054      9.8674      0.5407
H      5.2486     -7.3357     10.2382
H     13.9985     -5.7905      8.9336
H     12.4132     -3.3029      4.1531
H      0.5997      9.9438     -0.9718
H      2.2472      1.6269     -0.8786
H     11.8063     -8.6492      7.9076
C      2.1459      7.4082      2.6355
H      3.5537      2.7443     -1.0170
H     -1.5935     10.9407      2.1919
C      1.0457      9.1472     -1.6043
H      2.7184     10.3404      3.8940
C      4.2746      8.0325      4.2043
C      7.8004      7.4482      3.0114
C      8.2643      9.6712      1.5965
C      5.9861      8.6013      1.9154
C      4.2964      6.0851      6.4332
C      1.8022      4.9377      2.5000
C      5.6328     -6.5592     13.0357
C      5.6887      7.7746      4.2487
C      8.2899     -6.2749     13.7865
C      4.3435     -7.8979      7.4995
C      1.5550      4.8871      0.8646
H     10.3031     -6.7846      6.2555
C      6.2532      6.7759      5.3912
H      9.8636     -7.1973     14.0460
H      0.2182      1.3777      0.6722
C      7.1039     -7.1871     13.7238
H     12.1013     -9.7751      3.4018
O      7.4502      7.2385      5.8489
H      8.7983     -3.5817     11.7646
H      7.8998     10.7172      1.7991
H      2.1804      3.4057      4.0165
H     12.5469     -3.5578      2.3501
H      2.9697      4.7758      0.1210
H      4.5733      5.2049      4.3536
C     -0.5628      7.4748     -1.3320
C      2.8314      6.2170      3.0669
H     15.2202     -7.1850      9.0807
C     10.8601     -8.2630      4.8397
C     13.5421     -5.9805      5.4290
H      4.5667      8.4650      8.1276
H      2.1578      1.8569      4.7704
C     14.2781     -7.1644      4.9657
H      2.0310     -1.7870      8.8380
H      3.8007     11.0934      3.0653
H     12.4565     -6.1037      8.9489
C      8.2814     -6.7746      8.9938
C      4.1769      0.7597      8.2912
C      6.4283      7.7713      3.0713
C      9.3514     -3.4521      5.7021
C     12.8968     -6.4589      2.9827
C     11.6110     -6.4557      3.7061
H      4.0411     -6.3731     11.9553
H     10.2152     -9.6305      6.2478
C      1.7399      0.9712      8.6526
C     13.5866     -7.6589      3.5634
C      4.7918      3.5182      2.5279
H     14.5831     -8.2099      8.0673
H      7.4496     -4.9614      9.5445
C      6.4932     -9.1319     10.5354
H     10.4894     -0.7974      7.4182
H      7.2585     -2.9038      6.6866
C     15.0055     -6.0847      8.6684
C     11.3760     -7.2902      5.8221
C      2.2690      0.8067      2.1211
C     14.2373     -8.3061      5.8797
C     14.9938     -6.2083      7.1260
C      2.0480      4.3577     -0.3628
H     -1.2823      5.7802      1.2893
H      3.9802      1.9553      1.7512
H      4.2893      1.0037     -0.3631
H      9.0071     -7.6023      9.1432
H      7.5404    -10.1670      8.8319
H     11.1087     -2.5535      6.2155
H      5.7126      1.2055      2.9110
C     12.4551     -3.8601      5.0532
C      9.0836     -5.7700      9.7666
H      4.2877     -7.8660     13.6753
H      8.6229      9.4822      2.6949
C      8.2807     -1.2084      7.3397
H     10.1597     -7.5617      1.8740
H      9.0032     -2.7112      5.0145
H      5.7288      1.8492      9.3706
C     12.4798     -5.6139      7.6980
C     13.3533     -9.3190      5.4585
O      7.2075      5.5214      4.3262
C     11.3359     -4.9922      5.5681
C      6.4209      1.5924      7.3842
C      5.3819      1.8051      6.2869
C      3.3974      0.7224      5.8780
H      8.1554      7.0070      5.1484
H      6.8697      2.8399      7.3203
H      5.7414     -9.1928      7.9213
H      7.7975     -2.9125      9.6127
H     12.5081     -2.5294      6.6225
H      5.8797     12.8510      5.1952
C     15.0009     -7.8630      7.0384
H     -0.6695      4.1002      1.5957
C      3.8799      5.2021      5.1216
C      3.0824      2.7279      9.0997
H      9.2900      9.3596      1.2944
C      8.4491     -5.4810     11.0047
H      3.7270     -7.4387      8.2053
H     -2.6121      7.0228     -2.1284
H      7.3871      1.2053      6.7608
C      4.0456      2.4133      4.6840
C      4.9560     10.0561      5.7601
C      6.3725     -0.4038      8.7891
C      7.8032     -3.4521      8.6141
C      5.7440     -8.1655      8.0545
C      5.7264      0.9797      8.4986
H     13.5647     -8.7003      8.4783
H      1.3972      3.3130     -0.3455
H      6.7916      9.8701      0.3581
H      8.2740     -8.4118     11.5385
H     11.3142    -10.1217      6.2771
C      1.7038      9.8273      0.9669
H      3.1421      4.8873      9.8756
H     10.3247     -3.4922      2.6581
