271

C     19.6275      9.1212     13.7942
C      4.1076      1.6341      6.9245
C      1.9051      3.1705      1.0777
C      7.0219      4.7772      2.0709
H     -3.1473      3.6385      2.8172
C      7.3192      3.5571      2.4464
C      3.0322      4.0755      5.7091
C      6.8039     -3.2251     10.3971
C     15.9694      7.1137     19.4147
C      6.2852      1.7227      3.6589
C      6.1515     -4.2558      9.3810
C     14.0804      8.8312     13.9254
N     -0.0408      2.5313      6.4241
C     13.4918     -6.8720      0.5485
O     -1.4860      2.0330      1.9176
C      3.2283      4.1999      7.2790
C     15.6274      6.2336     17.3964
C     16.5414     10.6894     16.9807
H      1.4493      0.8579     10.0418
H     -3.3685      3.2303      4.9927
H     17.4805      7.1676     15.1926
H      5.8899     -1.3545     11.0590
C     16.8233      9.4719     16.2558
H      7.6754     -2.8514      9.6765
H     12.8400      7.1525     10.7403
H     -0.5319      4.8148      6.4299
C      2.9792      2.6288      7.6274
H     10.8586     -2.7295     -0.6059
H      7.3363      1.9216      3.9134
O     14.7388     10.9579     15.0563
C      8.1332     -0.1753      8.3319
C      7.1422      6.0367      9.6388
H     15.4112     -6.9458      8.8593
C      6.0838      2.6255      2.5570
H      6.2405      4.6659      7.0513
H      7.3377     -3.9313     11.0295
H      5.5779     -2.6196      8.4369
H      5.6403     -6.0858     10.4392
C     17.7232     10.6518     17.8246
C      9.5430     -4.4917      5.1032
O     14.6039     -4.1981      4.9240
C     11.1779     -5.0764      7.0215
C      8.7489      8.3176     12.1330
C     20.4033      7.8649     13.0410
C      6.5119      7.0837     -0.6389
H      4.4883      4.1763      1.7912
H     17.5639     10.8800     14.7664
H      1.9423     -0.8352      3.1743
H      8.9217     -7.4231      8.1406
C      7.3207      6.7179     10.9504
C      7.5829      5.7442      3.0331
H     21.1153      9.1109     15.3315
C     -1.1994      6.6911      5.1109
H     15.2017      8.8949     19.9385
H      4.3765      0.8649      2.5272
H      4.8097     -2.3950     10.3429
H     15.6233      7.4200     13.6869
C      9.8075     -1.0463      7.0906
C      6.0860      5.7943      8.8247
C     16.0165      7.4704     18.0268
C      4.6318      5.9094      0.2935
C     17.6519      9.5997     15.1575
H      8.5933     -4.8333      4.9963
H      8.1936      7.8726      3.2281
H      4.2942      1.3104     10.5011
H      6.5059     -0.5697      9.8333
H     17.7308     12.9626     17.3630
C     -0.1318      3.4064      8.8830
C     13.7074      8.1450     12.4489
C      1.7600      1.6793      7.6763
C     12.3732     -6.4549      1.4457
H      5.4313      7.9495     -0.8056
H     -1.8520      2.3989      4.3026
H      5.9872      3.8234      4.0594
H      5.3720     -2.8323     11.6983
C     10.0594      7.7020     12.9014
O     14.4289     11.1564     12.9649
C      6.1685     -4.0957      8.1066
C     16.1533      8.4059     20.0846
C      3.5669      1.3779      9.4874
C      2.8807      1.6710      4.8931
H     12.1744     -3.4973     -0.3351
H      6.3330     -0.4535      6.6817
C      3.6208      3.3191      3.2592
H      8.9074     -2.9982      6.5530
C     10.8865     -4.3851      0.7898
C     11.1741      7.0648     11.9519
H     11.1104     -2.8640      7.1278
C      5.3255      2.5699      5.0024
H      3.9744     -0.1704      5.5001
H      8.7156      0.6705      8.1298
C      2.8636     -0.7050      9.3520
C      4.9059     -1.5785      7.9723
C     -2.1641      5.1462      3.6385
C     16.4715      9.5362     19.3716
C      2.2005      3.6997      2.6259
C      5.0143     -5.0122      9.9280
H      3.0820     -0.6086     10.3802
H     15.9548      9.2338     14.0348
H     -3.9709      5.2110      2.4062
H     12.6843     -1.1270     -0.7775
H     15.3218     -8.4992     -0.7865
O      5.3735      6.7044      6.5943
C     13.4984     -4.8519      4.3955
H     16.8343     10.4069     20.0087
C     10.0921     -4.0952      3.6740
C     10.9205     -4.9171      2.9647
H      5.7197     -4.8262      7.4552
C      9.9823     -5.3580      7.5922
H     14.2092      8.5966     10.4160
H      5.5051      2.1080      1.4787
H      0.6318      3.7551      9.4735
C      3.0198      2.1559      0.8881
C     13.0920     -4.2094      2.1173
C     -0.9756      3.0463      1.5296
C      0.0283      3.7181      4.1832
C      7.4323     -2.1140      7.0774
H      2.6986     -0.5137      4.5012
H      8.9884     -5.1707      7.1910
H     15.6973      9.8431     18.7272
H     13.5895     -6.7283     -0.5417
O     12.5450     -3.2216      6.0713
C      6.1889     -1.1235      7.3931
C     13.5154     -5.9866      6.7431
C     15.4193      8.1628     14.3746
H     15.3248      8.4784     16.3674
C     13.4693     -5.2334      3.1160
H      8.3815     -0.3024      9.4239
C      2.5905      0.9153      3.6800
C      0.3698      2.2045      7.9403
C     10.5915     -2.0691      6.3339
C     -2.1928      3.2303      4.9219
C     18.1865     12.0072     17.8264
C      3.0602      3.9189      9.8937
C      0.4523      3.1671      0.7537
C     11.8309     -5.0381      1.7181
C      4.0222     -0.7133      8.5134
N      1.8949     -0.1495      3.9088
H      3.6102      2.2594     -1.2547
C      2.7770      1.7107     -0.5641
O     16.8213      6.5290     15.4739
C      9.3948      6.6837      0.7394
H     18.7762      8.8755     18.8531
H     -0.3888      1.3162      8.0663
C     -3.0801      4.6985      3.0015
C     10.3465     -5.5378      8.9844
H      1.5733      0.9603      7.0389
H      7.8298      5.2678      0.0161
H      7.5234     -4.3567      6.8443
C     11.3753     -3.1535      0.2719
H      4.0634     -5.1237      9.3813
H     11.8087     -3.2665      3.9453
H     15.4876      8.9370     11.6908
H      1.9021      2.0128     -1.1301
H     -1.1653      3.1932      9.3645
C     14.9446      7.7238     15.7491
H      5.2525      6.2569      9.1486
C     14.5101      8.7783     11.5223
C      5.8071     -2.3991     10.8241
H      3.4132      3.7952     10.9109
H     15.5795     10.7636     17.3440
C      4.2002      8.3518      4.3531
C      7.5372      7.1242      2.6451
C     20.7839      9.7488     14.6300
C     18.5143      8.5418     14.6500
C      4.1751      6.0076      6.4852
C      1.9450      5.1579      2.5555
C      5.9751      6.1746      0.2445
C      5.4769      7.2230      4.1840
C      7.9918      6.9216      1.3387
H     11.9274     -1.9138      0.3293
C      4.3607      5.0386      7.5562
O     12.2894     -0.9773     -0.0102
C     14.5380     -7.4263      1.2107
H     -2.2756      5.6530      6.5998
C      6.2464      7.0210      5.4459
H      9.5459      6.1878     -0.1287
H      0.4278      2.0521      0.3085
C      7.1472      5.6603      0.8793
H      0.2411      3.1737      3.2157
H     11.3110     -5.8509      9.3791
O      7.4802      6.9653      5.8052
H      9.0494      9.4112     11.9378
H      1.5166      3.2445      3.4714
H     12.7112     -3.1757      2.5148
H     16.4777     -8.3227      0.1278
H      4.4428      5.1216      4.2748
C     12.4817      7.4443     11.6642
C     15.5706      6.4198     16.0255
H     14.1234     -6.2008      9.3554
C     -1.3933      4.3511      4.5743
C      0.3710      6.7723      5.2152
H      4.7018     -4.3408     10.8456
H      2.5929     -0.1820      6.3992
C      1.2899      5.5456      4.8603
H      2.8972      0.3748      1.6769
H     16.7478     11.5115     16.4310
H     12.9162     -5.1058      8.5081
C      8.4727     -7.0192      9.0346
C      4.3690      0.7599      8.2463
O      6.0568      3.7489      4.9883
C      5.9742      7.7930      2.9583
C      9.5577     -2.9761      5.6054
C     12.7871     -6.6724      2.9209
C     -1.5427      6.6873      3.6374
H     16.6228      8.1241     20.9622
H      4.0505      6.8372      0.2576
H     -1.9624      3.1413      5.9054
C      2.2688      0.7301      9.2345
C      0.6094      5.1188      3.5622
C      4.8980      3.6600      2.9103
H     14.0150     -8.0917      8.3585
H      8.3072      8.2929      9.8712
H      8.3146      4.4965      4.2706
H     10.5952     -0.2955      7.4151
H      7.4238     -2.1520      5.8999
C     14.8048     -5.9544      8.6147
C     -1.3767      5.3521      5.8594
C      3.2790      1.2279      2.1663
C      1.4969      4.4512      5.8957
C     14.7368     -6.3909      7.2789
C     15.4458     -8.4693      0.2273
H      3.9534      2.8079      1.0921
H      2.8730      0.4517     -0.8460
H     11.4662     -1.6958      6.1470
H      5.8922      0.8341      3.3648
C     12.1856     -3.8884      4.8337
C      9.3299     -6.1363      9.7185
H      4.5410      5.7438      1.2899
H     21.6982     10.0050     14.1071
C      8.5399     -1.2896      7.4965
H      9.8496      6.9270      1.9572
H      8.9295     -2.3716      5.1911
H      5.7800      1.4226      9.5010
C     12.6329     -5.4110      7.6237
C      0.7579      3.2093      5.3985
O      7.7923      5.4487      4.2807
C     11.1162     -5.0140      5.6080
C      6.2310      1.7987      7.1347
C      5.2547      1.9818      6.2462
C      3.3723      0.7230      5.9346
H      7.1097      6.6282      6.6939
H      5.4457      3.7366      8.2594
H      8.4251     -3.8022      8.3322
H     12.8189     -4.1790      6.4390
H     18.7313     12.5620     18.6103
H      2.0896     -1.4200      9.2054
C     14.8885     -7.9598      7.4515
H     -1.3648      4.0718      1.7990
C      3.7751      5.4773      5.2095
C      3.2756      2.8610      9.1521
H     20.8119     10.7651     15.2352
C      8.5428      7.6501     10.7192
H      4.3267      5.6142      8.7626
H     10.5307      6.5004     11.0689
H      6.9885      2.4291      6.8773
C      3.6655      2.8027      4.6457
C     17.7227      9.2769     18.4121
C      6.6805     -0.2585      8.6765
C      7.5623     -3.5159      7.6644
C      5.7165      4.6518      7.8353
C      5.8783      1.0017      8.3897
H     -0.4700      4.0181      7.9187
H     10.1709     -4.6128      9.6699
H      0.1548      3.5585     -0.3508
H     19.1844      9.9055     13.2100
H      7.9693      5.9049     11.2444
H     -1.1020      2.7232      6.6827
C     14.5816     10.2513     13.9167
H      2.8754      4.9538      9.5509
H      9.9855     -3.1603      3.2519
