271

C     19.6842      8.5549     13.8658
N     -1.6826     10.7439      1.5591
C      3.7871      1.4941      7.2296
C      2.0528      2.7801      1.6380
C      7.2409      4.7740      2.1012
H     -2.9493      7.3307      2.1959
C      7.2960      3.4294      2.6009
C      3.2483      3.9535      5.3522
C     16.2313      7.1593     19.5282
C      5.8042      2.0089      3.7929
C     -7.2095      8.6161      9.6377
C     14.1028      8.6142     13.5447
N     -0.1727      2.7658      6.2590
C      0.3678      5.8602      0.6009
O     -1.4045      2.9697      1.1857
C      3.1091      3.9238      6.9226
H     -0.2733      5.5394     -0.3452
C     15.6275      6.4398     17.3660
C     16.3027     10.1362     16.7074
H    -11.8018     14.0947      9.8351
H     -3.6505      3.0773      4.7646
H     17.3925      6.1827     16.4008
C     17.0339      8.8564     16.2872
H     -8.3884      6.8620     10.7508
H     -7.2715      9.1952     10.5836
H      8.3376      2.6610      2.5806
H     -1.3903      4.5536      6.5473
H      7.4048      2.8000      8.0680
C      2.8255      2.6761      7.6666
H      6.7230      1.2175      3.7559
O     14.2515     10.8932     14.6411
C     -4.9180     12.8355      8.1967
C      6.3156      5.9469      9.9367
H      3.3529      6.4627      8.4437
C      6.3392      3.3612      3.4219
H      5.3791      3.2517      6.7593
H     -8.1987     11.3337      9.5390
H     -8.9319      7.9046      9.6791
C     17.1589     10.9600     17.5139
C     -2.8395      8.6155      5.0076
O      1.8497      8.6941      4.7730
C     -1.5951      8.3187      6.9704
C      8.6079      8.2787     11.7957
C     20.5749      7.7742     12.7926
C      6.3495      7.3120     -0.7310
H      5.3350      4.9181      2.3479
H     17.6441      9.8023     13.9487
H      1.7237     -1.0720      3.0830
H     -5.2428      5.9354      7.4167
C      7.6322      2.8999      9.1150
C      6.8104      6.7308     10.8483
C      7.7238      5.7911      3.1366
H      8.3047      7.3063      2.0080
C     -1.0746      6.6384      5.1358
H     16.9904      8.1975     21.0687
H      2.8482     -0.7775      1.9536
H     15.2729      6.9278     13.2194
C     -3.1507     11.6991      7.1226
C      5.9994      4.7196      9.3073
O      5.3417      2.8507     10.6007
C     16.0413      7.6740     18.0483
C      4.8952      5.4847     -0.4669
C     17.5917      8.9118     14.8827
H     -3.3384      7.7115      5.3399
H      7.9132      7.6183      4.1604
H     -9.8754     14.1845     10.7025
H     -6.3437     12.3926      9.7339
H      2.2630     -1.0049      5.2673
H     18.2076     13.0082     17.0191
C      0.1553      3.3896      8.6683
H     20.2159     10.2398     13.8592
C     13.1868      8.6037     12.0746
C      1.6697      1.8418      7.7277
H     -1.9623      8.4287      9.7810
C     -0.8107      6.2985      1.4115
H     10.3075      2.2966      2.1839
C     10.1323      7.6323     12.2835
O     15.7695     10.1688     13.2072
C     -6.3842      8.3474      8.5628
C     16.9928      8.3490     20.1369
C     -9.7004     14.5296      9.6540
C      2.7616      1.4437      4.9289
H     -1.9749     11.5771      1.9599
H     -7.5507     11.8947      6.9372
H     -9.0758     17.7933      9.7269
C      3.8171      3.4134      3.3504
H     -4.3697      9.6527      6.3157
C     -2.1799      8.5695      0.4968
C     11.1360      7.1800     11.4119
H     -1.4731     10.3527      6.6837
C      4.8637      2.1645      4.9318
H      4.0196     -0.1991      5.9868
H     -1.0508      2.4679      0.4214
C    -10.4659     12.4992      9.0250
C     -8.2464     11.1553      8.5250
C     -2.3682      5.2675      3.4204
C     16.6559      9.6065     19.4590
C      2.4590      3.6569      2.8056
C     -8.1716      7.3755      9.7981
H     16.1084      7.8461     14.2064
H      8.1212      4.8687      4.9190
H      2.4037      4.5184     -0.6853
O      5.5003      6.6345      6.7890
C      0.5357      7.9666      4.3767
H     -9.0263     10.4935      7.8055
C     -2.9860      8.7456      3.5196
C     -2.4656      7.4710      3.0360
H     -5.8761      7.5415      8.2010
C     -2.7259      8.3707      7.5479
H      2.2260      3.7511      4.8919
H     13.7134      9.3255      9.7903
H      5.3553      4.0187      0.6113
H     -0.6975      3.5783      9.2705
C      3.1922      1.5294      1.6971
C     -0.0206      8.4812      1.8097
O      4.6629      4.2723      0.0062
O      7.4650      4.0678     11.3853
C     -0.1492      3.2321      1.7288
C     -0.3457      3.8140      4.0438
C     -5.6766     10.5730      7.5448
H     -3.6856      7.9555      6.8501
H     15.6920      9.5411     19.2187
H     -0.8569     10.0784      4.2616
H      0.8818      6.7877      0.0228
O      0.0558      9.8310      6.0776
C     -6.9205     11.4445      7.8711
C      0.6652      7.1604      6.6021
C     15.0293      7.6480     13.9414
H     15.1738      8.3207     15.7792
C      0.5550      7.6442      2.7979
H     -4.1853     13.4190      8.4754
C      2.5053      0.4279      3.8486
C      0.2713      2.2334      7.6949
C     -2.5728     10.7447      6.3445
C     -2.5848      3.2715      4.7020
C     17.8384     11.9876     17.6176
C    -10.0308     17.3946      9.9655
C      0.6503      2.1652      1.7563
C     -1.2606      7.6879      1.3885
C     -9.1489     12.3381      8.8166
N      2.1167     -0.7320      4.1371
C      4.1638      1.5350      0.3687
O     16.8281      6.3918     15.6388
C      9.3400      6.4533     -0.0143
H     18.3845      9.1637     18.4599
H     -0.2914      1.4062      7.9875
C     -2.8872      4.7689      2.2202
C     -2.8793      8.1704      8.9972
H      8.1290      2.0132      9.7908
H      1.9079      0.9183      6.8176
H      7.4222      5.1422     11.5730
H     -5.2293      9.8398      9.6775
C     -2.4947      9.8047      0.6573
H     -8.2758      6.9679      8.8038
H      2.3407      7.9051      8.5478
O      9.4897      2.1042      2.8076
H     -0.2165      9.4578      2.2681
H     14.6639     10.1011     11.5329
H      4.5864      0.5778      0.1427
H      0.6370      4.4622      8.5676
C     14.8950      7.5168     15.3535
H      3.5495      1.7857     -0.5865
C     14.0080      9.0988     11.0850
H      5.2678      3.3098     11.5710
H     15.2762     10.1999     16.6947
C      4.2934      7.9671      4.3228
C      7.8570      7.2334      3.0154
C     20.6781      9.4887     14.4445
C     18.7492      8.2239     14.9455
C      4.2277      5.9526      6.3748
C      1.8529      5.0415      2.6290
C      6.1179      6.1343      0.0076
C      5.5309      7.3348      4.4690
C      8.1730      6.4086      0.4779
C      4.1424      4.8075      7.3845
C      1.5619      5.2610      1.0557
H     -2.7319      5.5430      6.1541
C      6.1081      6.5373      5.5170
H     -2.1510      2.2712      4.5510
H     -2.7984      4.4412      1.2205
H      0.4473      1.7575      0.7938
C      7.0058      5.4645      0.8564
H     -0.5971      3.0265      3.2541
O      7.4056      7.3817      5.9865
H      8.5467      9.2825     11.2313
H     20.4365      9.8990     15.2901
H      1.8452      3.0195      3.5860
H     -0.9662     10.2971      2.1364
H      3.4954      5.3212      0.8597
C     12.4341      7.4349     11.5637
H      6.4658      5.5188      5.0871
C     15.5971      6.3302     15.8868
H      1.6018      6.5577      9.3556
C     -1.7386      4.3763      4.3613
C      0.3205      7.0006      5.3360
H     17.9928      8.1899     20.2266
C      1.1221      5.8681      4.7899
H    -10.9605     11.4853      8.6802
H      1.3829      0.2980      1.8992
H     16.2474     10.6900     15.7156
H     -0.1989      7.6630      8.7015
C     -4.6295      6.0806      8.5340
C     -8.8071     13.7142      8.7955
C      6.2625      7.4293      3.2776
C     -3.5508      9.9347      5.5793
C     -0.2749      6.3505      2.9805
C     -1.5143      6.4137      3.7748
H      4.9754      5.1475     -1.6512
H     -2.4242      2.7776      5.7604
C    -11.0964     13.8697      9.1604
C      0.4997      5.2110      3.5566
C      5.1264      4.1096      3.1186
H      1.2470      4.9903      7.9033
H     -4.4381      9.0127      8.0888
C      6.6034      3.5585     10.4227
H     -2.9883     12.6988      7.7007
H     -6.1448     10.0593      6.7561
C      2.3324      6.9014      8.5428
C     -1.8233      5.2594      5.7280
C      2.4435      0.3426      2.3447
C      0.8508      4.9510      5.8933
C      1.9553      6.6354      7.1838
C      2.6494      4.8869      0.2035
H     -1.6804      5.6069      1.3559
H      3.5603      1.5436      2.8156
H      4.9999      2.2755      0.9869
H     -4.5380      5.1275      8.9285
H      8.6143      3.4361      9.0947
H      5.3642      1.8498      2.7530
C     -0.4821      8.9434      4.7890
C     -4.1522      7.5074      9.2305
H      4.0879      6.1866      0.0046
H     -3.7296      9.2115      2.9774
C     -4.7007     11.5479      7.6145
H     -3.8094      4.4486      2.2064
H     -4.0238     10.3030      4.8232
H     -6.8806     14.7133      8.7314
C     -0.3272      7.8789      7.4937
C      0.2399      3.7650      5.4038
O      8.4709      5.4779      4.4334
C     -1.5529      8.2528      5.4019
C     -6.8206     13.9687      6.6623
C      5.0522      1.9675      6.6447
C      3.1560      0.7614      6.2143
H      7.7398      8.1308      5.4281
H     -5.8451     14.3224      6.8084
H      0.5355     10.6342      5.5197
H     18.9979     11.9742     17.8678
C      1.8890      4.9648      6.9722
H     -0.0168      4.2353      2.0062
C      3.6924      5.2992      5.0040
C     -9.7315     15.8443      9.2694
H     21.6465      8.8938     14.4059
C      8.2823      7.5287     10.5228
H    -11.0191     17.6245     10.1837
H     10.9956      6.1738     10.8152
H     -6.9574     13.1450      5.8246
C      3.6049      2.7398      4.6902
C     17.6480     10.1292     18.6485
C     -6.3079     12.5267      8.7062
C     -5.3079      9.4997      8.4713
C      5.1174      4.3683      8.2758
C     -7.0349     13.7490      8.1662
H      0.1571      3.0038      9.6710
H      2.4153      3.0096      0.5482
H     18.8856      9.0431     13.0729
H     10.1097      5.5248      0.0423
H     -1.1795      2.6362      6.2593
C     14.6028      9.9414     13.7705
H     -9.5043     16.8346     10.7339
H     -2.2176      9.5824      3.2960
