268

C     19.8179      8.6087     13.4959
N     -3.2393     10.6747      1.7480
C      3.6845      1.4779      7.2624
C      2.0331      2.5107      2.4850
C      7.2253      4.4679      1.8865
H     -3.4841      6.9929      2.7156
C      7.8270      2.9915      2.2433
C      3.4166      3.7722      5.2910
C     16.1242      7.2181     19.3081
C      6.4183      1.8087      4.3091
C     -7.1762      8.1310      9.0931
C     13.5529      8.6865     14.0017
N     -0.0209      2.5378      6.3388
C      0.6975      6.2802      0.6655
O     -1.3808      2.5389      1.1390
C      3.3259      3.8412      6.7949
H     13.1731      7.4770     10.9488
C     15.6003      6.1840     17.3221
C     16.6482     10.2450     15.9866
H    -11.6647     13.9031      9.8008
H     -2.1690      2.8150      5.0197
H     17.5235      5.8705     14.9250
C     16.8780      8.7978     15.8211
H     -8.3562      6.6401      9.8499
H     -6.5003      8.5362      9.9729
H    -10.6127     16.1528     11.0760
H     -2.5936      6.4052      6.9773
H     -7.0160     14.5382      9.1962
H      8.8245      3.9381     10.9362
C      2.8978      2.7262      7.6818
H      7.1577      2.5494      5.1186
O     14.1721     10.4647     15.7031
C     -4.9205     11.9338      9.1111
C      6.2813      5.7076      9.3183
H      2.6890     -0.4827      6.3858
H      4.0606      5.2968      8.3298
C      6.3832      2.6602      3.0399
H     -8.9746     12.1173      9.9858
H      3.6406      7.7604      9.0489
C     17.3637     10.8290     17.1937
C     -2.6624      8.8012      5.2712
O      2.0088      8.7085      4.7961
C     -1.2311      8.4536      7.1570
C      8.6970      8.0822     11.5985
C     20.5680      7.6016     12.5355
C      6.6408      6.6855     -1.0715
H      5.4829      2.9386      1.2535
H     17.7287      9.4474     14.3587
H      2.3355     -1.1661      5.4363
H     -5.6976      6.5749      7.7156
C      8.1514      2.9131      8.6206
H      0.8191      1.4196      1.6505
C      7.2322      6.2457     10.4977
C      7.9287      5.3809      2.9174
H      7.8898      7.3486      1.8772
C     -1.0644      6.9630      5.4529
H     16.5735      8.7711     20.9044
H     16.5522     11.0509     15.1632
H      2.4572      5.4073      0.6098
C     -3.3655     11.5378      7.5164
C      6.0449      4.3191      9.0878
C     16.0541      7.5152     17.8048
C      4.6175      5.4003     -0.2451
C     17.7233      8.5413     14.8064
H     -3.0531      7.6279      5.4661
H      8.0492      7.2917      3.8216
H     -1.3029      1.7326      1.7495
H     18.8094     11.7214     18.3921
C     -0.1594      3.6991      8.3929
H     19.3043      9.9406     15.3553
C     13.3364      8.9946     12.4859
C      1.6938      2.2641      7.9829
H     10.7408      6.4465     11.0908
C     -0.6491      6.2985      1.5803
H      5.8926      7.4521     -1.5422
H     19.5155      8.8599     12.4613
C      9.9070      7.7045     12.5848
O     15.4732      9.8970     13.9289
C     -6.3188      8.4960      7.8369
C     16.7904      8.3807     19.8063
C     -9.6041     14.2268      9.5791
C      2.7404      0.9339      4.9822
H     -2.4534     11.1918      2.0759
H     -4.0908     11.0690      1.7658
H     -6.4272     13.0254      6.3660
H      2.7217      6.1489      9.1161
C      4.1353      3.6456      3.2128
C     -2.3096      8.5525      0.7534
C     11.3178      7.0800     11.8942
H     -2.2087     11.9232      5.5517
C      5.1023      2.0886      5.1167
H     17.8291     13.0432     17.0683
C    -10.8502     12.4043      8.6091
C     -8.3142     11.0998      8.2161
C     -1.8920      5.1515      4.0667
C     16.6121      9.6488     19.0512
C      2.7222      3.6202      3.0195
C     -7.6583      6.8306      9.1469
H    -11.4545     11.9623      9.5245
H     15.0459      7.8591     13.3706
H      8.8155      4.2778      3.3066
H      0.4237      3.2487      0.1692
O      5.4723      6.4622      6.2323
C      0.7807      8.0697      4.5163
C     -2.7901      8.7450      3.6998
C     -2.3774      7.3112      2.9815
H     -4.4111      9.9304      8.1695
H      8.6286      2.9127      3.1839
C     -2.3983      8.6214      7.6526
H      2.3022      3.4756      4.8359
H      4.3109      4.4457      1.5169
H      0.3531      4.1078      9.2412
C      3.0075      1.4125      1.9384
C     -0.2877      8.4295      2.1632
O      4.2748      4.3502      0.5080
O      7.8191      3.7836     10.7805
C     -0.2513      3.2289      1.7984
C      0.3993      3.7116      4.2104
C     -6.0234     10.8273      7.1356
H     16.1642     10.5796     19.5318
H     -0.8979      9.9878      3.9803
H     11.8958      8.7898     11.0186
O      0.5497     10.3658      5.9034
C     -6.9892     11.0745      8.3458
C      0.9387      7.4211      6.9668
C     14.5066      7.4584     14.0403
H     15.5489      8.2905     15.6465
C      0.5291      7.6349      3.0780
H     -4.7209     13.0349      8.9371
C      2.4879     -0.2685      3.8513
C      0.3204      2.5308      7.7421
C     -2.7214     11.1198      6.1944
C     -1.8865      3.5309      6.0261
C     17.8037     12.0146     17.7643
C    -10.1227     16.5998     10.2466
C      0.7484      2.3320      2.0410
C     -1.4703      7.6677      1.6084
C     -9.1199     12.1596      8.7671
N      1.9952     -1.3265      4.5271
H      8.1644      2.7776      1.2795
C      3.3358      1.5775      0.3879
O     16.7838      6.4591     15.1040
C      9.5509      6.1685      0.2414
C     -2.2998      4.0964      2.9271
C     -3.1112      8.5955      9.1218
H      7.6983      3.4720      7.7243
H      1.9777      0.8423      6.8844
H     -5.3582      8.8461      6.1090
C     -3.1740      9.4756      1.1611
H     -7.9423      6.7215      8.1260
H      2.0499      7.3873      9.6884
H     -0.9379      9.2120      2.7906
H     13.6467     10.4939     10.7754
H      2.8620      0.6290     -0.3137
H     -1.0858      4.4197      7.8623
C     14.7880      7.3247     15.4908
H      3.0940      2.5648     -0.3260
C     13.9796      9.9475     11.7095
H      7.7119      5.3895     10.9680
H      2.2840     -2.2901      4.1205
C      4.2484      8.2223      4.2196
C      7.6867      6.7992      2.8813
C     20.1801      9.6445     14.5931
C     19.0580      7.8392     14.3929
C      3.9776      5.9676      6.3367
C      1.9837      4.8946      2.6362
C      6.0211      5.7215     -0.0723
C      5.4287      7.2778      3.8451
C      8.0965      6.3458      0.4788
H     14.8804     10.4540     12.0671
C      4.1608      4.8652      7.4456
C      1.4217      5.1519      1.0485
H     -3.2437      8.8034      6.8601
C      6.2125      7.2829      5.0757
H      2.4460      1.8479      4.8137
H     -2.2498      4.3282      1.8213
C      6.9815      5.1855      0.7775
H     -0.6871      3.4898      4.1759
O      7.5507      7.6398      5.2647
H      8.6331      9.1917     11.0531
H     20.7063      9.1805     15.4124
H      0.9027      2.7020      3.9169
H      0.7831      4.1198     -1.0302
H      4.8777      5.5145      4.0300
C     12.5414      8.0612     11.6651
H      6.0324      4.8077      6.8911
C     15.6702      6.2086     15.8277
C     -1.9291      4.6984      5.5674
C      0.3567      7.0847      5.5821
H     -7.9116      8.9023      9.2018
H      3.6761      1.5750      4.9509
C      1.2459      5.8472      5.0783
H    -11.1547     12.1202      7.4469
H      2.6481     -0.6625      1.5842
H     13.7762      9.4648     16.0087
H     -2.5056      8.3519      9.8179
C     -5.1819      7.4861      7.5927
C     -8.6156     13.6164      8.5644
C      6.3439      7.1660      2.7086
C     -3.4085     10.2897      5.1982
C     -0.3208      6.4730      3.0400
C     -1.3155      6.4804      4.0422
H      2.4706      3.9250     -0.0967
H      4.0335      5.0603     -1.3664
H     -2.4489      3.2930      7.0499
C    -10.8733     14.0136      8.9869
H     -1.8665     10.5544      6.0662
C      0.8990      5.0282      3.6779
C      5.3100      3.1086      2.3643
H      2.1150      4.8621      8.5244
H     17.8826      8.3852     19.9956
C      7.2807      3.5006      9.5922
H     -2.4417     11.8423      8.0921
H     -6.1618     11.1425      6.0134
C      2.6101      7.0941      8.8663
C     -1.6713      5.9928      6.2504
C      2.7370      0.1435      2.5685
C      0.9845      4.6811      6.4551
C      2.1113      6.7328      7.3248
C      1.0987      3.9104     -0.0796
H     -1.1782      5.4280      1.2624
H      3.7992      1.6876      2.5389
H     -3.2960      9.7083      9.3248
H      4.4100      1.3706      0.4491
H     -4.2106      7.3720      6.9676
H      9.2243      2.7071      8.9222
H     -3.1252     11.0240      4.2079
H      6.8678      0.7571      4.1275
C     -0.1680      9.2853      4.8365
C     -4.3005      7.6073      8.8061
H     -3.8240      9.3012      3.6187
C     -4.6923     11.0164      7.8747
H     -2.1420      2.8776      2.9005
H     -4.3878     10.5527      5.2710
C     -0.1112      7.8384      7.6435
C      0.4948      3.5447      5.7088
O      8.4240      5.0059      3.9656
C     -1.2283      8.6322      5.6674
C     -6.8544     13.9186      6.9555
C      5.0541      1.7549      6.4499
C      2.8452      0.6562      6.4212
H     -5.8361     14.4758      6.6803
H     -8.5898     16.0314      9.1253
H     -4.5807     12.1212     10.1203
H      1.4170      9.8593      6.2638
H     17.0682     12.0128     18.4886
H     -0.0191      7.7409      8.7002
C      1.7360      5.3055      7.4885
H     -0.6350      3.9665      2.3401
C      3.8730      5.3405      4.8996
C     -9.5116     15.7052      9.2785
H     20.7815     10.4551     14.3358
H      0.2275      6.5083     -0.2857
C      8.3517      7.3016     10.0783
H     -9.4150     16.9651     10.9186
H     11.9639      6.2340     12.1229
C      4.4227      3.0044      4.4817
C     17.4271      9.5063     17.9228
C     -6.6112     12.2614      9.2532
C     -6.1752      9.3684      6.7136
C      5.4921      4.2514      7.5098
C     -7.1118     13.6167      8.5063
H     -1.0671      5.7414      7.1800
H     -7.1188     12.2710     10.2712
H     10.2919      5.4649      0.7896
C     14.4685      9.8276     14.4433
H    -10.7943     17.3654      9.9152
H     -2.3798      9.6051      3.2386
