262

C     19.9931      8.9486     14.0064
C      3.8455      1.5433      7.0434
C      1.9741      3.0378      1.2498
C      7.1239      4.9254      2.6559
H     -2.9054      3.0777      2.7781
C      7.2509      3.7568      3.1659
C      3.4127      3.8650      5.4734
C     -5.9778     10.2239     10.3054
C     16.1133      7.2414     19.4272
C      6.0641      1.7997      3.8386
C     -7.0837      9.3612      9.4178
C     13.8579      8.8979     13.8447
N     -0.1268      2.7889      6.3360
C      0.2908      5.6423      0.6163
O     -1.3813      2.3122      1.7020
C      3.2461      4.1222      6.8703
C     15.5736      6.1192     17.5844
C     16.6217     10.3126     16.7479
H    -11.4728     13.6408      9.5730
H     -3.2613      3.5875      4.4936
H     16.8284      7.0121     14.9918
H     -6.7346     10.3111     12.3039
C     16.9476      8.9175     16.1488
H     -8.1420      8.6172     10.9049
H     -5.7701     11.2028      9.9565
H      7.9248      3.5542      4.0332
H     12.9828      6.9598     11.2536
H     -1.1207      5.0780      6.8631
C      3.2101      2.7681      7.6872
H      6.8385      1.1056      4.4650
O     15.1553     10.6749     14.8727
C     -4.6509     12.7150      8.4880
C      6.8539      5.8087      9.7840
H      2.2316      0.2619      6.1190
H      3.0777      6.6301      9.4419
C      6.2202      2.8071      2.8368
H      6.2472      4.5342      7.8804
H     -4.9593      9.7284     10.6430
H     -7.7505     11.1899      9.6024
H     -8.7006      7.7204      9.6886
C     17.5188     10.9038     17.8144
C     -2.8118      8.4914      5.2919
O      1.7803      8.9379      4.7087
C     -1.3531      7.7640      7.3044
C      8.6124      7.9722     12.0677
C     20.4555      7.7882     13.0435
C      6.5024      7.0539     -0.6925
H      4.6513      4.0283      1.7054
H     17.8925     10.1224     14.7596
H      1.5540     -0.9751      2.9205
H     -5.4355      6.3644      7.6775
H     15.2178      9.7986     15.3233
C      7.2160      6.2152     11.1453
C      7.7264      5.8634      3.5997
C     -1.0824      6.7386      5.2339
H     15.1788      8.5701     19.9931
H     -7.0118     11.6517     11.0869
H     14.9320      6.8946     13.4519
C     -3.1241     11.2226      7.9380
C      5.5188      5.4810      9.4925
C     15.9416      7.7523     17.9382
C      4.5937      6.0887      0.6527
C     17.8723      9.1380     15.0435
H     -3.9528      8.3976      5.2537
H      8.0376      8.0419      4.1465
H     -8.4813     14.0894     10.1632
H     -6.5776     12.4763      9.8121
C     -0.0962      3.7950      8.6820
C     13.5238      8.5911     12.3823
C      1.7876      2.1157      7.9187
H     -1.9781      7.6994      9.9214
C     -0.7417      6.3319      1.4959
H      5.6356      7.4374     -1.2460
H     -2.1194      2.2893      5.0006
H     -7.9080      9.8818     11.4591
C      9.8367      7.2937     12.7133
O     14.2095     11.2927     13.2314
C     -6.5572      8.5175      8.0859
C     16.3024      8.4759     20.1982
C     -9.1789     14.3042      9.3884
C      2.8603      1.5417      4.7233
H     -2.0864     10.0371     -0.9859
H     -7.1156     12.0064      6.7891
H     -9.1595     16.3179     10.9705
C      3.6701      3.2064      3.1741
H     -4.1109     10.0728      5.8402
C     -2.2373      8.5921      0.6487
C     11.2080      7.1075     11.8557
H     -1.9341      9.4326      7.6732
C      5.1728      2.1573      4.9926
H      3.6935     -0.4057      5.5883
H     -4.7323     13.6329      7.6411
C    -10.2998     12.3516      8.3208
C     -8.2323     11.1165      8.4566
C     -2.1454      5.2067      3.7509
C     16.6120      9.7586     19.6342
C      2.2859      3.4781      2.7571
C     -7.8908      8.3170     10.0081
H     15.9784      7.7075     14.0957
H     -2.3301      4.3072      1.6489
H      2.4354      3.6558     -0.7014
O      5.6472      6.4469      6.4943
C      0.5862      8.2682      4.4922
H     -8.8818     10.1215      8.2120
C     -2.7115      8.5679      3.7759
C     -2.3721      7.5659      3.0092
H     -7.0938      8.6091      7.1536
C     -2.5102      7.4637      7.9540
H      2.2717      3.8717      5.0471
H     14.1366      9.0109     10.4218
H      6.6123      2.3018      1.9805
H      0.8725      4.1049      9.0293
C      3.0695      1.7451      1.0405
C     -0.2576      8.5750      1.9518
C     -0.6055      3.1405      1.2462
C     -0.3236      4.2016      4.2655
C     -5.5562     10.8926      7.4322
H     -3.2434      7.6817      7.3314
H     15.7991     10.0951     19.6581
H      0.6260      5.1502     -0.4705
O      0.3174      9.3717      6.3791
C     -6.7818     11.5540      7.8764
C      0.8376      7.0517      6.9437
C     15.0034      8.0223     14.1161
H     15.9515      8.1987     15.8282
C      0.3342      7.8351      3.0943
H     -3.8764     13.2429      9.2057
C      2.6463      0.5112      3.4639
C      0.4754      2.7213      7.6118
C     -2.2145     10.3711      7.0784
C     -2.5635      3.2821      5.2560
C     17.9279     12.0931     17.8993
C     -9.7072     16.6720     10.0243
C      0.6082      2.7611      0.5736
C     -1.5236      7.6995      1.5103
C     -8.8805     12.3492      8.2536
N      1.5906     -0.3056      3.6582
H      3.8395      0.6474     -0.4808
C      2.9401      1.2120     -0.3748
O     16.9201      6.3521     15.7138
C      9.4144      6.1169      0.5201
H     18.5047      9.2928     19.0634
C     -2.8312      4.3552      2.6640
C     -2.8319      7.6030      9.3157
H      1.4043      1.3770      7.1330
H      7.2868      4.6947      0.5748
H     -4.5882      9.1514      6.9486
C     -2.4447      9.6429     -0.0207
H      4.9632      5.8832     10.2569
H      2.0627      8.2608      8.5722
H     -0.8814      9.9763      4.9286
H     14.9870      9.6532     11.9685
H      2.9484      1.9537     -1.1529
H     -0.4412      3.5555      9.5753
C     14.6228      7.3981     15.4630
C     14.4192      9.0173     11.4946
C     -6.8828     10.6478     11.3850
H     15.7062     10.0569     17.2503
C      4.4672      8.1180      4.5027
C      7.7391      7.2072      3.3461
C     21.1850      9.4427     14.8191
C     18.9319      8.3684     14.9821
C      4.3935      6.1349      6.3328
C      1.8279      4.8184      2.7115
C      5.8763      6.3553      0.3889
C      5.6530      7.3700      4.3551
C      8.0763      6.6554      0.8289
C      4.1819      5.2834      7.5349
C      1.5913      5.1170      1.0716
H     -2.7181      5.5095      6.1738
C      6.4887      7.1805      5.5320
H      0.6379      1.6568      0.8687
C      6.8232      5.6840      1.2411
H     -0.8446      3.3878      3.5036
O      7.6238      7.4462      5.9859
H      8.9795      9.0501     11.7728
H      1.5830      2.9197      3.3273
H     -0.4174      9.5317      2.1440
H      3.4245      4.4381      0.5076
H      4.3346      4.5680      4.4203
C     12.5517      7.4775     12.1321
C     15.5674      6.2592     16.0291
H      1.2882      7.1505      9.7070
C     -1.7220      4.5547      5.0003
C      0.4300      6.9984      5.4164
H     16.9334      7.9442     21.0295
H      1.9083      2.0775      5.0690
C      1.0875      5.8256      4.9089
H      2.2913     -0.1763      1.4201
H     16.7703     11.0443     15.8105
H     -0.2086      6.7304      8.8974
C     -5.3457      6.4754      8.8546
C     -8.3004     13.8028      8.3784
C      6.4231      7.5386      3.1616
C     -3.0436      9.9714      5.6603
C     -0.4623      6.3972      2.9564
C     -1.6464      6.4994      3.7047
H      4.0777      6.1573     -0.3032
H     -3.1455      3.2518      6.3500
C    -10.7487     13.7227      8.7397
C      0.6008      5.3214      3.6322
C      4.8456      3.3454      2.6784
H      1.8648      4.4634      8.1759
H     -6.2588      7.5427      8.1777
H     -2.4888     12.1290      7.9498
H     -5.9018     10.6426      6.4226
C      2.3344      7.0768      8.8476
C     -1.5489      5.4816      6.0252
C      2.9492      0.5281      2.0411
C      1.0098      4.7673      6.2164
C      2.1237      6.4424      7.4193
C      2.3601      4.0414      0.4115
H     -1.2458      5.4787      1.6278
H      3.9236      2.5095      1.0879
H      2.2106      0.9255     -1.0923
H     -1.5267     11.1318      6.6864
H      5.2663      1.1272      3.5117
C     -0.5220      8.9942      5.2627
C     -4.2059      7.1379      9.6098
H      4.3954      5.4897      1.4541
H     21.5730     10.1431     14.0422
C     -4.3095     11.7338      7.5119
H      9.6759      6.1868      1.6378
H     -2.2795     10.4722      5.0484
H     -6.6055     14.5309      9.3666
C     -0.2385      7.1715      7.7934
C      0.3529      3.7705      5.5305
O      8.6782      5.5119      4.4936
C     -1.4483      7.9388      5.8207
C     -6.6468     14.2797      7.2158
C      5.1730      1.8920      6.3147
C      3.1929      0.6257      5.8652
H      8.8461      6.3298      4.9356
H     -5.6956     14.6509      7.1597
H      5.2656      3.3650      8.8809
H     -4.8230      9.1094      8.7470
H      1.1750      9.0564      6.0340
H     18.7845     12.3964     18.3390
H    -10.7456     11.3663      8.5528
C      1.9947      4.8991      7.2169
H     -0.5464      4.2037      1.5819
C      3.7827      5.3141      5.1193
C     -9.5866     15.6658      9.0965
H     21.8684      8.6289     15.5395
C      8.1663      7.2341     10.9259
H      3.7483      5.7037      8.3545
H     11.3025      5.9817     11.4465
H     -6.2478     13.2600      6.6565
C      3.8716      2.7129      4.5066
C     17.5148      9.7132     18.6273
C     -6.3380     12.5448      8.7837
C     -5.2347      9.4427      7.7300
C      5.2517      4.6334      8.4878
C     -6.9151     13.7430      8.5963
H     -0.7023      4.7034      8.4042
H      0.3368      2.8781     -0.5339
H     19.5352      9.8164     13.6225
H      7.5010      5.2540     12.0309
H     -1.2675      2.7999      6.3975
C     14.2609     10.3819     14.0564
H     -9.9847     17.8511      9.7729
H     -2.8481      9.6855      3.8572
