264

C     20.0476      8.6068     13.6929
N     -1.7897     10.4687      1.2666
C      3.7480      1.3757      7.0266
C      2.2502      2.3758      2.5480
H    -11.3306     14.1133     10.3210
C     -5.6538     18.0059      2.1590
H     -2.8422      6.6914      2.8705
C     -5.4122     16.4874      2.4764
C      3.3075      3.8656      5.6313
C     16.2989      7.3986     19.5923
C     -6.8701     14.8435      3.9846
C     -7.0156      7.8303      8.8827
C     13.8163      8.7147     13.9382
N      0.4866      2.5674      6.2185
C      0.8613      6.0184      0.6882
O     -1.6452      2.7954      1.5944
C      3.0090      3.8761      6.9700
C     15.6820      6.2225     17.4016
C     16.8613     10.4010     16.0978
H     -2.3362      3.3719      7.0788
H     16.5959      5.4016     14.9339
C     16.9899      8.9588     15.8115
H     -8.4405      7.3726     10.2255
H    -10.6255     16.3826     10.5534
H     -0.3416      5.5349      6.9551
H     -6.5166     14.0864      8.7570
C      3.0445      2.5762      7.6626
H     -6.2097     14.6669      4.8795
O     14.0134     10.3810     15.6448
C     -5.1407     12.1985      8.8830
C      6.3528      6.0336      9.7512
H      1.7448      0.8673      7.2604
H      4.0148      5.0988      8.5772
C     -6.7535     16.1287      3.0070
H      5.1825      3.1472      7.2363
H     -8.7975     11.7143      9.3109
H      1.3871      7.6428      9.5349
C     17.5027     10.7857     17.4570
C     -2.4320      8.8703      5.1375
O      2.2766      8.8467      4.4023
C     -1.4316      8.4087      7.1506
C      8.9056      7.8561     11.7655
C     20.6469      7.6429     12.7102
C     -6.5399     20.1415     -0.9229
H     -8.3514     16.6564      1.4887
H     17.0327      9.2997     13.5776
H      2.4665     -0.8501      5.4666
H     -5.2422      5.6212      8.3425
C      7.6279      2.7895      7.9837
H      0.1893      1.2041      1.5619
C      7.0335      6.5051     10.9182
C     -4.9835     18.7006      3.1169
H     -4.8286     20.2112      2.0323
C     -0.8703      6.8943      5.4004
H     16.7316      8.7258     21.4075
H     16.4788     11.2049     15.2493
H     -8.0422     19.0914      0.2713
C     -3.1644     11.2187      7.7058
C      6.2830      4.7527      8.8692
C     16.2792      7.5596     17.8317
C     -7.5625     17.7902     -1.0494
C     17.6927      8.6759     14.5486
H     -3.3558      8.5172      5.7562
H     -4.4765     20.5027      3.9015
H     -9.1987     13.9406     10.5608
H     -7.5500      9.7806      8.9309
H     18.6153     12.7662     17.6845
C     -0.3511      3.7116      8.4018
H     21.8084      9.6484     14.3923
C     13.4030      8.4516     12.3775
C      1.6184      1.9838      8.1045
H     11.0864      6.7793     10.5245
C     -0.6183      6.0756      1.6421
H     -7.5925     20.8396     -1.3746
C     10.0667      7.2759     12.4856
O     15.6044      9.8618     14.1232
C     -5.8331      7.8636      8.0583
C     17.1325      8.6026     20.3477
C     -9.3299     14.2546      9.3635
C      2.1077      1.0315      4.7553
H     -1.1722     10.3194      2.0560
H     -6.8346     12.3254      6.5569
H      2.9471      7.6267      9.0376
C      3.9440      3.5852      3.4728
C     -2.5071      8.1589      0.6839
C     11.3707      6.6972     11.6226
H      8.7343      2.4749      7.8890
C     -7.9172     15.0936      5.0596
H    -11.4216     11.7266      9.5824
H     17.2896     13.0420     16.8164
C    -10.8159     12.4366      8.7091
C     -8.5623     10.9828      7.4905
C     -2.1113      5.2852      4.2014
C     17.0671      9.8284     19.5779
C      2.5036      3.5829      3.1577
C     -7.8112      6.8272      9.4258
H    -11.5448     12.2300      8.0028
H     15.4001      7.2832     13.5847
H      0.3115      3.8556     -0.1918
O     -7.1755     19.5719      6.3316
C      0.8643      8.2366      4.5293
H     -8.1990     11.6821      6.6291
C     -2.3899      8.7992      3.5305
C     -2.1168      7.3956      3.0787
H     -4.4327     10.0258      8.9910
H     -4.6516     16.0232      2.9684
C     -2.6930      8.6784      7.8717
H      2.3264      3.8821      5.0483
H     -9.3379     17.4493     -1.5213
C      2.7942      1.2962      2.0911
C     -0.3454      8.4490      2.0029
O     -9.0579     17.3715     -0.5413
O      7.7986      4.0277     10.3291
C     -0.1998      3.1995      1.9714
C      0.3292      3.9759      4.2404
C     -5.8850     10.2997      7.4385
H     -0.3762      9.8265      4.1525
H     12.7874      7.8769     10.4773
O      0.4158     10.1332      6.0696
C     -7.1568     10.7004      8.1834
C      0.8750      7.5535      6.8267
C     14.3770      7.4253     14.0160
H     15.0950      8.3837     15.8033
C      0.3533      7.7479      3.1777
H     -4.9539     12.8241      8.1496
C      2.1288     -0.1382      3.5747
C      0.6219      2.7458      7.6180
C     -2.4854     10.8999      6.7033
C     -1.9098      3.3561      6.0940
C     17.6173     12.3467     17.5145
C     -9.7443     16.5982      9.9971
C      0.6620      2.2825      1.8297
C     -1.4354      7.5968      1.6524
C     -9.3066     12.0782      8.3495
N      2.0386     -1.2110      4.5391
C      3.4481      1.8453      0.4543
O     17.0389      6.1473     15.4383
C     -3.4695     18.8986      0.1079
H     18.9671      9.2721     18.3684
C     -2.6190      4.3279      3.3345
C     -2.9743      8.1350      9.2899
H      7.3387      3.1671      7.1327
H      1.5330      2.2191      6.4634
H      8.2589      3.1239     10.6290
H     -4.5751      8.5950      6.5942
C     -2.3617      9.5680      0.4325
H     -8.1810      6.6754      8.4666
H      1.8210      6.0575      9.4631
H     -0.4667      9.3475      2.5095
H     14.2429      9.2866     10.5732
H      3.8850      1.0638      0.4098
H     -2.1905      3.6131      1.4673
H     -0.6051      3.7210      9.5673
C     14.6736      7.3220     15.4638
H      2.6184      1.7417     -0.1361
C     14.3228      9.2999     11.7139
H      7.2786      5.5776     11.2804
C     -8.4271     21.2931      4.3391
C     -5.0756     20.2548      2.9938
C     20.7195      9.7310     14.0458
C     18.9252      8.2074     14.4489
C      4.0793      6.0099      6.6387
C      1.8379      4.9680      2.7620
C     -7.1451     19.0047     -0.1726
C     -7.1672     20.5268      3.9623
C     -4.8397     19.2708      0.3828
H     14.7509     10.2838     12.1126
C      4.2004      4.8373      7.4317
C      1.6624      4.8224      1.1287
H     -3.4288      8.8460      7.2735
C     -6.3400     20.2541      5.4119
H      1.3719      1.8169      4.7296
H     -3.1317      4.6042      2.4664
C     -6.0991     18.4685      0.9317
H     -0.3074      3.2489      3.7014
O     -5.0077     20.2449      5.6421
H      8.8016      8.9260     12.0693
H     21.0476     10.2989     13.1186
H      1.1090      3.2898      4.0342
H      1.9478      4.5223     -0.8364
H      4.5080      5.1277      4.3776
C     12.7989      7.4418     11.3819
H      6.1833      4.3196      6.4444
C     15.6144      6.1586     15.8750
C     -1.9629      4.8950      5.4962
C      0.5828      7.1474      5.4104
H     -7.7390      8.6435      9.6199
H      3.2261      1.4651      4.1526
C      1.2911      5.8870      4.8157
H      2.4704     -0.8791      1.6170
H     14.6821     11.1133     15.6746
H     -1.8820      8.0299      9.2458
C     -4.9784      6.7773      8.1133
C     -8.6701     13.4895      8.1739
C     -6.4389     20.9344      2.8858
C     -3.0070     10.2355      5.5449
C     -0.1324      6.3067      3.0358
C     -1.4167      6.3556      3.9979
H     -2.9378     12.1010      8.5264
H      1.7781      2.9837      0.2567
H     -6.7395     17.2747     -1.3125
H     -2.7239      2.7571      5.5539
C    -10.8848     13.8651      9.1382
H     -1.3188     11.2193      6.6211
C      0.7369      5.3009      3.6726
C     -8.0408     16.4094      2.4910
H      1.5647      4.9331      8.3524
C      7.3138      3.7568      9.0664
H     -2.0277     11.3794      1.0712
H     -6.2763     10.8471      6.5539
C      2.1258      6.9689      8.8662
C     -1.2950      5.7722      6.2693
C      2.1116     -0.0402      2.2824
C      1.0715      4.9606      6.1030
C      1.9891      7.2014      7.3804
C      1.3185      3.9803      0.0449
H     -1.2446      5.4261      1.2598
H      3.7201      2.9149      0.7416
H     -4.0302      6.9196      7.4331
H      6.7247      2.0530      8.3811
H     -2.7842     10.6386      4.4783
H     -7.1576     14.1406      3.3139
C     -0.0799      9.1204      5.2255
C     -4.1194      7.3369      9.1737
H     -7.8040     18.5984     -1.8097
H     -3.0814      8.8115      2.7974
C     -4.5350     10.8070      8.1604
H     -2.9302      3.4067      3.8115
H     -4.1161     10.3267      5.7035
C     -0.4297      7.6790      7.8101
C      0.3292      3.8455      5.8334
O     -4.6181     18.2211      4.1732
C     -1.2535      8.3540      5.7157
C     -6.6193     13.4859      6.8800
C     -7.8844     14.2162      6.3015
C      2.5347      0.8911      6.2340
H     -5.6232     13.6981      6.8416
H     -7.9576     15.6640      8.6314
H     -5.1909     12.5834      9.9221
H      0.1952     10.8253      5.3296
H     17.3884     13.1813     18.5804
H     -0.2999      8.4126      8.6499
C      1.7726      4.5811      7.3825
H     -0.1726      4.1799      2.5768
C      3.7705      5.3356      5.2467
C     -9.0994     15.6873      8.8732
H     19.8501     10.1328     14.3413
H      0.4628      6.0658     -0.2864
C      8.3032      7.2591     10.6124
H     -9.0366     16.4509     10.7914
H     12.1731      6.0442     11.8321
C      4.1114      3.0340      4.7483
C     17.7318      9.5758     18.2399
C     -6.8928     12.1395      9.0410
C     -5.4247      8.8687      7.2022
C      5.6368      4.3641      7.4558
C     -7.2714     13.2151      8.2606
H     -0.1068      4.6679      7.8520
H     -3.2706      9.7148     -0.0275
H     -7.4174     11.9968      9.9549
H     -3.0971     18.0162      0.6072
C     14.4341      9.7917     14.4386
H     -9.9796     17.5481      9.7723
H     -1.8041      9.5945      3.3606
