268

C     19.8368      8.2316     13.5090
N     10.1544     10.2636     14.6852
C      3.7609      1.4900      7.0299
C      1.9569      2.4514      2.1294
C     -5.3972     17.2557      2.0827
H     -3.0832      6.7255      2.8016
C     -5.7019     15.7459      2.1190
C      3.5021      4.1152      5.2154
C     16.3213      7.0179     19.4774
C     -6.7235     14.7155      4.3107
C     -7.0320      8.1607      8.7910
C      0.3740      9.0615      0.8281
N      0.4625      2.5810      6.2439
C     13.3636      6.1863     13.6705
O     -1.6191      2.5705      2.2276
C      3.2380      4.1619      6.8686
H      0.6548      7.1749     -1.1477
C     15.7189      6.3381     17.2708
C     16.8390     10.1402     15.6008
H     -1.5938      2.6243      5.6888
H     16.8481      5.1379     15.4140
C     16.9973      8.7820     15.6680
H     -8.7242      7.4219      9.8475
H      7.5688      2.0823      8.6845
H    -10.7517     16.8116      9.7004
H     -1.3117      5.9337      7.3733
H     -6.9591     14.3959      9.2544
C      3.2383      2.7864      7.8344
H     -5.7182     15.0549      4.9075
O      1.0209     10.7682      2.4942
C     -5.1751     11.9177      9.2498
C      6.1484      6.0584      9.6956
H      2.9110     -0.2728      6.6340
H      3.8269      5.5175      8.0387
C     -6.6601     15.5089      3.1366
H      5.5521      3.3430      7.5776
H     -9.4968     11.7676      9.7949
H      1.7362      7.9753      9.0140
C     17.2319     10.7112     16.8067
C     -2.8388      8.5877      5.2562
O      2.1076      8.8606      4.6074
C     -1.4794      8.3039      6.8909
C      9.1510      7.6873     11.6733
C     20.8597      7.3513     12.7141
C     -6.0525     19.5835     -1.0464
H     -7.8233     16.9738      1.5804
H     16.8692      8.8278     13.6469
H      3.0352     -1.2630      5.0367
H     -5.2474      6.2056      7.9646
C      7.6226      3.0861      8.9026
H      0.3033      1.2509      1.6435
C      7.3915      6.3754     10.3106
C     -5.1241     18.1783      2.9303
H     -4.6005     19.9141      1.8910
C     -1.0808      6.7757      5.3207
H     15.9463      8.7901     20.5266
H     16.3659     10.5559     14.6145
H      2.4017      5.6717      0.7305
C     -3.5409     11.3621      7.5638
C      6.0363      4.6642      9.3673
C     16.0418      7.5774     17.9267
C     -7.9043     18.5540     -0.1817
C     17.4027      8.2444     14.4450
H     -3.8055      7.9374      5.4282
H     -4.7305     19.9044      3.5289
H     -9.4037     13.8338     10.7746
H     -7.5813     10.2748      8.8236
H     -1.3992      1.7337      1.6159
H     18.5283     12.2554     16.1482
C     -0.3825      3.5685      8.2792
H     18.8845      9.8829     14.7846
C      0.1593      9.0939     -0.5726
C      1.9566      2.1884      8.2484
H     -1.5639      7.3855     -2.5017
C     12.2219      6.3818     14.5425
H     -6.9311     20.0987     -1.4263
H     19.3830      8.2700     12.3064
C     10.3752      7.0792     12.5389
O      2.1383     10.4978      0.4836
C     -6.0293      8.0786      7.8091
C     16.6086      8.4181     19.9413
C     -9.4727     14.4436      9.7792
C      2.5119      0.9181      4.7009
H     10.8581     11.1209     14.3451
H      9.3679     10.4257     15.4737
H     -7.1653     12.7918      6.9301
H      3.1936      7.0878      9.2363
C      3.9804      3.2961      3.1665
C     10.5696      8.1635     13.7066
C     -1.3053      7.1300     -1.5328
C     -7.9499     14.8934      5.2694
H     16.6413     12.4976     16.4945
C    -11.2171     12.8436      8.4486
C     -8.6726     11.4064      7.7084
C     -2.2334      5.1153      4.2643
C     16.5493      9.6145     19.2003
C      2.5984      3.5208      2.6208
C     -7.8125      7.0603      9.3377
H    -11.4523     11.6909      9.0379
H     14.8129      8.1850     13.0085
H     -4.9576     16.7331      4.5865
H      0.7760      4.0353     -0.1758
O     18.7572      6.3866     19.2233
C      0.7115      8.3119      4.4639
H     -8.5657     11.9150      6.8327
C     -2.9284      8.7127      3.6440
C     -2.3288      7.4224      2.9742
H     -4.8049      9.9619      9.0045
C     -2.5980      8.6985      7.5252
H     -8.3961     17.0566     -0.6468
C      3.0261      1.3543      2.0504
C     -0.4106      8.5698      1.9973
O     -8.5845     17.4466      0.2295
O      7.0035      3.6324     11.1738
C     -0.4264      3.2892      1.7819
C     -0.0935      0.0084      1.8622
C      0.2662      3.8595      4.1469
C     -6.2876     10.5935      7.2795
H     15.8092     10.3887     19.3599
H     -0.6463      9.9649      4.1694
H      0.5200      8.1209     -2.2604
O      0.5503     10.1583      5.7364
C     -7.3539     11.1083      8.2453
C      0.8139      7.4288      6.8219
C     14.4442      7.3886     13.7535
H     14.8609      8.4607     15.6792
C      0.4870      7.8316      3.1322
C      2.4472     -0.1357      3.5468
C      0.7482      2.8548      7.6967
C     -2.8653     10.8820      6.5047
C     -2.6089      3.2364      5.9096
C     17.7083     12.1914     17.0323
C     -9.8354     16.9679     10.0413
C      0.5323      2.3352      1.7297
C     11.4404      7.5173     14.7652
C     -9.4295     12.1837      8.7083
N      2.3788     -1.3221      4.2447
C      3.8274      1.5858      0.8046
O     16.8986      5.9961     15.3423
C     -3.0732     19.0160      0.5848
H     -6.9784      9.0321      6.4234
C     -2.7061      4.4727      3.1868
C     -2.7965      8.8285      9.0981
H      7.4048      3.5633      8.1061
H      1.9012      0.8980      6.9220
H     -5.0844      9.0690      6.0509
C      9.7718      9.2328     13.6250
H     -8.3573      6.5147      8.5138
H      1.6703      6.4100      9.5297
H     -1.2217      9.3324      2.4462
H      0.9390      9.5244     -2.4292
H      3.5229      0.6606      0.3908
H     -1.1219      3.9056      7.6667
C     14.7187      7.4568     15.2176
H      3.6357      2.5448      0.5374
C      0.7993      9.8416     -1.5720
H      8.1800      5.5716     10.4183
H      1.9859     -2.1290      3.7111
C     17.1976      8.2829     17.0819
C     -5.2965     19.5795      2.6318
C     19.9467      9.7276     14.0166
C     18.9101      7.8813     14.5220
C     17.3527      6.1312     19.2100
C      1.8185      4.9706      2.6360
C     -6.5030     18.4400     -0.0847
C     18.5018      7.3579     16.9646
C     -4.5422     19.0008      0.6078
H      0.7709     10.7708     -1.4974
C      4.2333      5.0637      7.2230
C      1.5777      5.1892      1.0381
H     -3.7308      8.8791      7.2663
C     19.5341      7.0450     18.1515
H      1.8586      1.7265      4.3617
H     -2.6830      5.1358      2.2417
C     -5.5571     18.0336      0.7685
H     -0.7831      3.6929      3.6530
O     20.7140      7.3923     18.2808
H      9.1769      8.8082     11.7666
H     20.5110     10.0512     14.8851
H      0.7944      3.1137      3.4854
H      2.2843      4.2202     -0.7644
H      4.5878      5.1493      4.0658
C      0.0010      7.8115     -1.3581
H      6.3412      5.0316      7.2601
O     -1.1295      0.3107      1.9907
C     15.6027      6.3410     15.8013
C     -2.0179      4.6626      5.5550
C      0.5025      7.1358      5.3874
H     -7.6096      9.0240      8.5180
H      3.4150      1.1892      4.2799
C      1.4105      5.9993      4.8713
H    -11.8309     12.5268      7.6244
H      1.3036     -0.0730      1.8233
H     -0.0796     10.5795      2.5734
H     -2.0952      8.5417     10.1174
C     -4.6614      7.1718      7.8139
C     -8.8041     13.5212      8.7871
C     -6.5873     20.2611      2.9079
C     -3.1992     10.2222      5.3473
C     -0.2290      6.4065      3.0945
C     -1.4567      6.4600      3.9793
H     -3.0074     12.0930      8.1214
H      1.7359      3.1845      0.5448
H     -8.1990     18.2171     -1.3831
H     -2.2164      3.4963      7.0845
C    -10.9089     14.1221      9.3037
H     -1.8072     10.2947      6.8849
C      0.8102      5.3347      3.6827
C     -7.7303     16.5308      2.5986
H      1.7283      4.7957      8.3793
H     17.5324      8.4043     20.4569
C      6.8779      3.6570      9.9073
H     -6.2540     11.1912      6.3035
C      1.9963      7.0705      8.8420
C     -1.2326      5.6591      6.2644
C      2.3783      0.1391      2.1803
C      1.3766      4.8329      5.9125
C      2.0101      6.6826      7.3994
C      1.7365      4.1522      0.0494
H     11.4903      5.6823     14.2692
H      3.9327      1.6877      2.8500
H     -3.0611     10.0989      8.8493
H      4.8618      1.1112      0.9578
H     -4.0419      7.3858      7.0109
H      8.6357      2.8375      9.0112
H     -2.4444     10.8125      4.6686
H     -6.3652     13.4841      4.0809
C     -0.2799      9.2336      4.9337
C     -3.9308      7.8732      9.0936
H     -8.3937     19.4519      0.2667
H     -4.0618      8.6091      3.7175
C     -4.7290     11.0026      8.3058
H     -3.3825      3.5772      2.9108
H     -4.3031     10.3659      5.0495
C     -0.1780      8.0186      7.5701
C      0.4727      3.6929      5.6251
O     -4.7445     17.9444      4.1293
C     -1.4305      8.3338      5.5225
C     -6.8069     13.7782      7.3649
C     -7.8127     14.4262      6.5640
C      2.7570      0.6863      6.1241
H     -5.6702     13.6848      7.1512
H     -7.9471     15.6266      9.2166
H     -4.9265     11.5928     10.5090
H     -0.1657     10.8799      6.2418
H     17.6773     12.6027     18.0348
H      0.1478      7.8498      8.6829
C      1.9597      5.0885      7.3377
H     -0.5846      4.2791      1.7767
C      3.9236      5.4004      4.8215
C     -9.0513     15.9570      9.1873
H     20.2188     10.6148     13.3675
H     13.2335      5.8900     12.5716
C      8.3153      7.4187     10.1822
H     -1.2034      6.0873     -2.1386
C      4.1677      3.0306      4.6374
C     16.9127      9.7287     17.7701
C     -6.6936     12.0885      9.1024
C     -5.9617      9.0951      6.9011
C      5.4925      4.5472      7.9778
C     -7.3989     13.4090      8.8152
H      0.0118      4.5814      8.7609
H      8.6170      9.0901     13.6881
H     -7.4125     11.8010     10.1064
H     -2.2939     18.2926      0.4270
C      1.3864     10.0275      1.1687
H     -9.8762     18.0550      9.6040
H     -2.4052      9.5815      3.5044
