277

C     19.8673      8.8262     13.7559
N     10.4992     -2.0862      1.5015
C      3.8683      1.3426      7.2366
C      2.0655      2.3552      3.0631
H      1.0295      0.7497      9.9183
C      7.2647      5.1301      2.6387
H      9.8187     -5.3602      2.5269
C      7.3304      3.6424      2.7058
C      3.3072      4.1763      5.6239
C     19.1813     10.8095     11.8676
C     16.1761      7.3838     19.4355
C      5.8484      2.3245      4.1047
C      6.3975     -3.1659      9.0035
C     14.0320      8.6280     13.4226
N      0.5866      2.5046      6.1038
C     13.7650     -6.8125      0.6006
O     -1.1260      2.4846      1.3278
C      3.4070      4.3306      7.0493
H     13.3514      6.9290     11.3781
C     15.5933      6.3830     17.4605
C     17.1418     10.6334     16.0786
H     -3.0318      2.9891      6.1205
H      4.5417      5.9546      0.5399
C     16.9744      9.0411     16.0396
H      4.9398      7.2869      8.8026
H     20.1773     11.4319     11.6196
H      4.1998      5.7899      8.2540
H     -0.5990      5.3042      6.5796
H      6.2018      1.6078      9.3061
C      3.1311      3.0194      7.9119
H      6.9807      2.3093      4.5428
O     14.6215     10.2399     15.3467
C      7.7256     -0.6634      9.0647
C      6.3587      6.0101      9.8603
H      1.9102     -0.2548      8.8024
H     15.5805     -7.0339      8.9220
C      5.9792      3.4206      3.2009
H      5.6283      3.2997      8.0652
H     18.3816     11.3181     12.3816
H      4.3023     -1.2748      9.6279
H     15.3897     -5.2584      8.9102
C     17.7977     10.7757     17.2314
C     10.0999     -3.9718      5.0401
O     14.9401     -4.2783      4.9551
C     11.4623     -4.6222      7.0437
C      8.6984      8.0671     11.9717
C     20.4775      7.6432     12.9542
C      6.6415      6.8628     -0.6789
H      4.8379      4.6432      1.9648
H     17.3000      9.5607     13.9859
H      6.9740     -5.6930      9.4520
C      7.9633      2.6802      8.6077
H      0.2652      0.9357      2.6375
C      7.5177      6.2233     11.0657
C      8.0943      5.8139      3.5273
H      8.4431      7.5464      2.3639
C     -1.1160      6.8848      5.0821
H     16.0999      8.8306     21.2587
H     17.7725     10.9915     14.9709
H     16.7718      5.9719     15.6948
H      3.5359      4.3899     11.1964
H     15.7154     -7.4898      0.9696
C      9.7485     -1.3850      7.6059
C      6.4274      4.7928      9.1626
C     16.1264      7.6754     18.0407
C      5.6542      4.4431     -0.3198
C     17.6014      8.5547     14.8376
H      9.3258     -4.5134      5.3477
H      8.6678      7.7184      4.1713
H      3.5981      0.6216     10.3644
H      7.0022     -2.4406      9.6455
H     19.2359     11.7983     18.2792
C     -0.3942      3.4627      7.7936
H     20.7786     10.7733     14.3868
C     13.4431      8.5941     12.0524
C      1.8206      2.1864      8.2539
H     10.7317      6.8628     10.4244
C     12.4613     -6.6047      1.4582
H      5.7690      7.5218     -0.9174
H     -2.2110      2.4049      4.4975
H      7.7449      6.4375      6.6261
C     10.2005      7.6288     12.4313
O     16.1398     10.1592     13.6271
C      7.0923     -4.1767      8.2104
C     16.6463      8.4530     20.2089
C      3.3224      1.1049      9.4150
C      2.7061      0.6501      5.1388
H     21.8035      9.2314     13.2992
H     11.1148     -1.2624      1.7704
H      6.0127      0.4994      6.1347
H     -2.3750      5.9201      6.7389
H      4.2146      6.5756     10.3047
C      3.6608      3.9458      3.2882
C     10.8110     -4.3634      0.3622
C     11.1988      6.7898     11.4403
H      8.7734      1.9563      9.2414
C      4.8756      2.2974      5.2544
H      2.5897     -1.8049      9.5580
H     17.9519     13.0520     17.2153
C      2.6473     -1.0984      8.6654
C      4.5227     -1.8372      7.4677
C     -2.0855      5.0974      3.6452
C     16.7268      9.9760     19.4648
C      2.4474      3.6221      2.8089
C      5.2599      6.9231      9.8659
H      1.9884     -1.5448      7.9798
H     15.3932      7.2075     12.9499
H      9.0585      6.2792      5.2228
H     15.2693     -9.5653     -0.4801
O      5.5756      6.9432      6.4621
C     13.6902     -4.7046      4.5488
C     10.2628     -4.0020      3.6641
C     10.7785     -5.3450      2.8090
H      8.4684     -2.7923      8.7047
H      8.1288      2.9251      3.2504
C     10.1973     -4.5030      7.6194
H      1.9026      2.2621      4.1498
H     11.4497     -1.5874     -0.4655
H      4.7084      5.0658     -1.5364
C      3.1903      1.1831      2.5795
C     12.8520     -4.3546      1.6347
O      4.2650      4.8657     -0.4458
O      7.6878      3.8026     10.8951
C      0.0470      2.7565      1.9545
C     -0.2925      4.0250      4.2527
C      7.0567     -2.0399      7.2904
H     15.9117     10.4565     19.1692
H     12.5130     -2.7587      4.4283
H     12.5522      7.7479     10.2642
O     13.1545     -3.2518      6.2029
C      5.8164     -2.0937      8.1839
C     13.4935     -5.4913      6.7464
C     14.7763      7.3819     13.7839
H     15.9979      8.6016     15.8646
C     13.8214     -5.0271      3.0356
H      7.6435     -0.0224      8.1561
C      2.2575     -0.2848      4.1733
C      0.7531      2.7075      7.4722
C     10.3940     -2.2899      6.7751
C     -2.5991      3.3015      5.1850
C     18.2279     12.1211     17.6597
C      3.2979      4.2679      9.9890
C      0.8936      1.7880      2.3043
C     11.5782     -5.1591      1.4779
C      3.8882     -1.1295      8.4144
N      1.4575     -1.3807      4.6125
C      2.9931      1.6772      1.0589
O      5.3616      6.3422      0.9409
C      9.5628      6.6284      0.5671
H      6.4450     -4.1324      6.1023
C     -2.4172      4.3239      2.5759
C     10.0948     -5.4041      8.7920
H      8.0022      2.5851      7.5851
H      1.2748      0.7942      6.6882
H      8.3389     -3.5558      6.5415
C     10.9680     -2.9483      0.4845
H      5.2575      7.6923     10.5029
H     13.9078     -5.9829      9.0626
H     12.4548     -3.1269      1.5565
H     13.3855      9.0951     10.3873
H     13.5379      9.9784     15.4673
H      3.2249      2.8605      1.3651
H     -1.3029      3.6328      1.4639
H     -0.4492      3.7917      8.7918
C     15.0785      7.3624     15.3293
H      3.3151      0.8787      0.2763
C     14.0401      9.4079     11.1820
C     19.7340      9.7012     12.4402
H      7.5415      4.9688     11.1452
C     11.0030     -2.5811     -0.8627
H      1.3763     -1.6978      5.5310
C      4.3853      8.3586      4.4365
C      8.0114      7.4381      3.3070
C     21.0615      9.6334     14.0806
C     18.9530      8.4987     15.0887
C      4.3467      6.2764      6.3156
C      1.8329      4.9273      2.5322
C      6.3458      5.6939      0.2163
C      5.8058      7.6917      4.3523
C      8.2057      6.6669      0.9623
H     15.0269      9.7854     11.4652
C      4.7175      5.2806      7.4685
C     14.7817     -7.9566      1.1149
H      9.2120     -4.5160      7.0071
C      6.4447      7.4046      5.6510
H     -0.3656      2.0138      5.9277
H     -3.5153      4.5512      2.1789
C      7.4693      5.5047      1.2342
O      7.7880      7.2868      6.0331
H      7.5502      8.0874     10.4087
H     21.0434      9.4337     15.1142
H     13.8822    -10.2075      0.3248
H      4.8449      5.5326      4.5997
C     12.5229      7.6449     11.3440
H      6.4128      4.0787      7.0185
C     15.7849      6.1762     15.9342
C     -1.6753      4.4036      4.9190
C      0.3256      6.8969      5.4194
H      6.0457     -3.7466      9.8929
H      2.9739      2.2489      4.6179
C      1.3131      5.9513      4.7587
H      2.0978     -0.5635      2.0620
H     16.2245     11.1445     16.5935
H     10.0478     -6.5301      8.4541
C      7.2771     -5.4891      8.4635
C      4.2674      0.6866      8.6059
C      6.6115      7.9874      3.1814
C     10.0809     -2.5813      5.2214
C     12.8020     -6.7481      2.9076
C     -1.5669      6.5284      3.5990
H     10.4011     -1.1259      8.3587
H     13.7671     -8.5971     -0.7223
H     17.5840      7.3467     15.2400
H      5.6705      3.6590      0.2556
H     -3.3775      3.9600      4.7115
C      1.8746      1.3435      9.2327
H     11.3772     -1.9770      7.1374
C      0.6277      5.3417      3.5976
C      4.8806      4.0456      2.7751
H     14.2365     -8.1950      7.7492
H     17.5973      8.2736     20.6590
C      7.3788      3.8217      9.6284
H      9.6209     -1.6627      1.3167
H      6.6771     -1.4218      6.3375
C     14.9526     -6.1139      8.6082
C     -1.5588      5.5718      5.8902
C      2.7882     -0.1830      2.9583
C      1.5861      4.5853      5.5889
C     14.8303     -6.0251      7.1268
C     14.5390     -9.0814      0.1586
H     12.1689     -7.5489      1.1991
H      4.1717      1.4459      3.0240
H      9.6042     -4.3377     10.5299
H      1.8293      1.3426      1.3279
H      8.2191     -6.1620      8.3114
H      7.1145      2.5877      9.1612
H     10.9350     -2.0655      4.8959
H      6.1054      1.3495      3.5758
C     12.5689     -3.7801      5.0572
C      9.5030     -5.0841      9.9002
H      6.5645      4.1382     -0.8043
H      9.1989     -4.3241      3.3987
C      8.3466     -1.8868      8.0780
H     -2.3944      3.2402      3.0086
C     12.6202     -5.1973      7.5967
C      0.6344      3.5371      5.2402
O      8.5612      5.4682      4.7794
C     11.4253     -4.6756      5.5463
C      6.2706      1.1113      7.0895
C      4.9930      1.6596      6.4498
C      2.3710      0.7849      6.4932
H      7.2934      1.6505      7.2133
H      4.9532      2.9132      9.4767
H      8.2845     -0.8894      9.9958
H     14.2905     -3.1758      6.0307
H      3.7121      0.8708      5.2283
H     12.4509     -4.8445      8.6158
C     14.8637     -7.7985      6.8863
H      0.4578      3.7247      1.8552
C      3.8028      5.6258      5.0863
C      3.6998      2.9535      9.2638
H     13.5112     -6.7067     -0.4071
C      8.3426      7.4823     10.6708
H      2.2829      4.1476      9.9399
H     11.3693      5.5454     11.8576
C      3.5911      3.0391      4.8029
C     17.3531      9.7853     18.1715
C      6.0665     -0.7676      9.0377
C      7.2281     -3.4416      6.9397
C      5.8835      4.2780      7.8466
C      5.7571      0.6125      8.4615
H     -1.5147      3.8547      7.3844
H      5.9484     -1.2544     10.1944
H     10.2783      5.7749      0.4527
C     15.0216      9.7747     14.0175
H      3.5773      5.2696      9.8034
H     10.6597     -2.8534      3.2823
