281

C     19.8405      8.8936     13.3412
N     -1.9379     10.5235      1.2052
C      3.8530      1.2997      6.8787
C      2.0353      2.4474      2.2996
H    -11.5135     13.6286      9.8236
C      7.4455      5.0312      2.0624
H     -3.0755      6.9598      3.3201
C      7.5598      3.7047      2.6447
C      3.3270      4.2170      5.2793
C     16.2948      7.1985     19.3371
C      6.5648      2.1002      4.3167
C     -7.0110      8.3247      8.9259
C     13.7248      8.8866     13.7649
C     -2.6672     12.2773     -0.5085
C     -4.4037     13.7347      0.5597
N      0.1714      2.5902      6.2918
C      0.5731      6.2973      0.7525
O     -1.3701      2.7191      1.7108
C      3.1734      4.1146      6.9494
H     13.7945      6.8162     11.0860
H     -5.3566     13.5064      1.0627
C     15.6527      6.2819     17.4031
C     16.7127     10.4015     16.2798
H     -2.3809      3.1258      6.7193
H     17.4027      5.5290     15.6137
C     17.1011      9.0167     16.2531
H     -8.4289      6.8861      9.9809
H     -0.7812      5.6282      7.2327
H     -6.9524     14.2372      8.9085
C      3.1566      2.6529      7.3156
H     -1.7972     11.5127     -2.4680
H      7.3198      2.7925      4.3902
O     14.1357     10.4662     15.6074
C     -5.1311     12.4895      9.0690
C     -2.4325     11.2391     -1.5970
C      6.1775      5.9227      9.5999
H      2.9857     -0.1355      6.4570
H      3.8006      5.3638      8.1315
C      6.3247      3.1158      2.9694
H      5.5927      3.6282      7.4327
H     -9.1657     11.6290      9.3952
H      2.1595      8.0594      9.0879
C     17.6759     10.9182     17.1099
C     -2.7370      9.0884      5.3312
O      2.1943      8.6865      4.5704
C     -1.3266      8.4329      7.1966
C      9.0311      7.6395     11.7383
C     20.3519      7.5374     12.5947
C      6.2980      7.0044     -1.1625
H      5.1410      4.3507      1.5266
H     17.6550      9.8080     14.4975
H      2.1689     -2.0909      4.3998
H     -5.5751      5.8920      8.1009
C      7.5724      2.9358      8.2473
H      0.9914      1.1127      1.8281
C      6.9943      6.3104     10.7276
C      8.2137      5.7481      2.8974
H      8.5120      7.6734      2.0354
C     -0.8370      6.7743      5.2901
H     16.9307      8.9453     20.8531
H     16.2775     10.8731     15.6076
H      5.3775      6.7179      1.2194
H      2.5390      5.1927      0.7383
C     -3.3603     11.5213      7.7250
C      6.0776      4.6580      9.0361
C     16.0306      7.6858     17.8921
C     -3.7681     14.8692      0.4143
C      4.9829      5.0114     -1.0086
C     17.5801      8.8878     14.9607
H     -3.5284      8.4150      5.5405
H      8.4623      7.3411      4.0312
H     -8.8349     14.2659     10.2242
H     19.0626     12.4849     17.3149
C     -0.4949      3.3217      8.2021
H     21.7249      8.8865     14.2173
C     13.3370      8.9021     12.2468
C      1.8385      2.0685      7.9756
H     10.9428      6.6689     10.2983
H     -1.3359      9.4596     -1.7775
C     -0.7388      6.1021      1.6559
H      5.5781      7.6793     -1.6534
H     -1.7836      2.4439      5.0513
C     10.1186      7.0047     12.4641
O     15.6823      9.7214     13.9056
C     -5.8161      8.2457      8.2414
C     17.0795      8.5881     19.9672
C     -9.1365     14.3856      9.2989
C      2.7100      1.1672      4.5497
H     -0.9686     10.8391      1.2135
H     -6.3918     13.0840      6.0953
H      2.8852      6.6416      9.1553
C      4.1256      3.1834      3.0405
C     -2.2786      8.0020      0.5569
C     11.3261      6.7657     11.3837
H      7.8417      1.9520      8.6699
C      5.2657      2.3244      5.0453
H    -11.6062     11.6934      8.9511
H     17.8892     13.3458     16.6607
C    -10.9211     12.5468      8.2973
C     -8.3165     11.0975      7.3259
C     -2.5350      5.1182      4.1120
C     16.8439      9.9965     19.4723
C      2.6914      3.5662      2.6337
C     -7.6537      7.0669      9.0910
H    -11.5361     12.4747      7.2888
H     15.0418      7.5151     13.1338
H     -1.7389     12.3712      0.0707
O      5.6499      6.8812      6.4365
C      0.7306      8.2200      4.5274
H     -7.8526     12.1209      6.8495
C     -2.6375      8.9858      3.7867
C     -2.2995      7.6116      3.4528
H     -4.4500     10.7455      9.2005
H      8.2629      3.8843      3.3414
C     -2.5892      8.2205      7.7365
H     -3.8449     15.8046      1.2988
H      2.5182      4.0776      4.5016
H     -1.1888     10.8216     -0.7615
H      3.8556      3.8737      0.0750
C      2.9642      1.0856      1.9054
C     -0.4053      8.5070      1.8916
O      3.7317      4.4533     -0.6087
O      7.6431      3.7150     10.3269
C     -0.1951      2.9811      1.6551
C      0.1568      3.8116      4.1943
C     -5.7530     10.6480      7.7133
H     -3.6817     10.8803     -1.7828
H     16.0514     10.2607     18.8702
H     -0.1080      9.8816      4.4331
H     12.8373      7.7374     10.1987
O      0.3338     10.0774      6.2455
C     -7.0588     10.9085      8.4172
C      0.9145      7.2560      6.8625
C     14.3840      7.5041     13.9626
H     15.3419      8.3649     15.6059
C      0.4603      7.5974      3.0139
H     -4.5652     13.1707      8.2600
C      2.5548     -0.1595      3.7278
C      0.4383      2.4534      7.5726
C     -2.7046     11.2663      6.6880
C     -2.2682      3.2851      5.7147
C     17.7462     12.4285     17.2978
C     -9.9118     16.4322      9.7725
C      0.8222      2.1550      1.8760
C     -1.4575      7.5359      1.8071
C     -9.2975     12.1187      8.3034
N      2.0497     -1.0680      4.5737
C      3.3499      1.5853      0.5967
O     16.7978      6.2268     15.0525
C      9.3044      5.9682      0.2920
H     18.7309      9.6252     18.9014
C     -2.6024      4.2748      2.9081
C     -3.0970      8.3540      9.0421
H      8.1957      3.6771      7.8886
H      1.9584      1.0361      6.6340
H      8.3124      3.0091     10.7576
H     -4.6524      9.4528      6.6779
C     -2.3775      9.4404      0.1008
H     -7.9120      6.6563      8.0583
H      0.8837      7.0305      9.2323
H     -0.5179      9.4866      2.3846
H      3.2370      1.5735     -0.6068
H     -1.5260      3.9833      2.6839
H     -0.7610      3.1577      9.2366
C     14.6430      7.5183     15.3992
H      3.5167      2.4888      1.0848
C     14.2249      9.7323     11.6053
H      7.3930      5.1172     11.0660
C     -1.6928     10.0494     -0.9257
H      2.4906     -1.2291      5.5698
C      4.5167      8.4778      4.5809
C      7.9681      7.3979      2.9075
C     20.9830      9.6558     13.9691
C     18.7075      7.9898     14.6405
C      4.3125      6.1712      6.3185
C      1.8971      4.8768      2.6126
C      5.6778      6.0308      0.0831
C      5.7560      7.8304      4.3011
C      8.0522      6.2510      0.2869
H     15.1948      9.9637     12.1268
C      4.3101      4.9916      7.3501
C      1.5360      5.1306      0.9811
H     -3.6405      7.7757      7.3897
C      6.4520      7.4594      5.4475
H      1.9322      1.9834      4.4410
H     -2.7401     14.9987      0.2284
H     -3.2460      4.7020      2.0535
C      6.9534      5.6892      0.9061
H     -0.7039      3.6543      3.7924
O      7.7372      7.2486      5.5232
H      9.2352      8.5360     11.0780
H     21.2364      9.6736     12.9404
H      0.2341      2.8669      3.5824
H      1.0969      4.6887     -0.8961
H      4.7587      5.4263      4.3216
C     12.9778      7.4267     11.2927
H      6.5749      5.2580      6.8614
C     15.7438      6.2966     15.9078
C     -2.0584      4.7371      5.5157
C      0.7069      7.1803      5.5400
H      3.5689      1.7839      4.6580
C      1.2814      5.8272      5.0439
H      2.1832     -0.9765      1.6209
H     14.3971      9.9909     16.3033
H     -2.3884      8.0113      9.8059
C     -4.9954      6.8957      8.0025
C     -8.7283     13.4845      8.0981
C      6.4481      7.7473      2.8572
C     -3.0429     10.5079      5.5182
C     -0.3406      6.1223      3.0437
C     -1.5865      6.4006      4.1156
H     -2.7825     11.7326      8.7401
H      2.0189      3.4870     -0.6420
H      5.6152      4.0127     -1.0526
H     -3.2396      3.2382      5.1565
C    -10.6792     13.8579      9.2426
H     -1.5230     11.2774      6.4188
C      0.7244      5.1986      3.6747
C      5.2934      3.5790      2.3695
H      1.5287      4.8237      8.3987
H     17.9259      8.2421     19.7967
C      6.9354      3.5233      9.3386
H     -2.4266     10.1450      1.9300
H     -6.1763     10.8698      6.7031
C      1.7735      7.0092      8.8540
C     -1.2606      5.7237      6.2729
C      2.2250     -0.0633      2.3506
C      1.1091      4.9073      6.0507
C      2.0030      6.6762      7.3526
C      1.1756      4.1652     -0.0520
H     -1.3235      5.2563      1.4390
H      3.8472      0.8767      2.6050
H     -3.7200      9.3943      9.3157
H      4.4663      1.1616      0.3856
H     -4.9280      6.6620      6.8756
H      7.1520      2.8724      7.3723
H     -2.4229     10.9144      4.6310
C     -3.8492     12.3723      0.1651
H      6.8385      0.9927      4.2845
C     -0.2717      9.3002      5.1848
C     -4.0027      7.2657      9.3302
H      4.9141      5.3105     -1.9655
H     -3.1864      9.6557      3.3750
C     -4.5960     11.2163      8.3362
H     -2.9884      3.3237      3.2931
H     -3.9898     10.2964      5.2282
C      0.0213      8.0615      7.7947
C      0.3908      3.7990      5.7137
O     -4.0208      5.4285      4.0680
C     -1.4237      8.5036      5.7618
C     -6.7355     13.7501      6.8826
C      5.2242      1.8080      6.4667
C      2.7393      0.8856      5.9668
H     -5.7382     14.0800      6.3952
H     -7.9874     15.5384      8.3608
H     -4.8084     12.2166     10.1884
H      1.0364      9.5402      6.7447
H     17.4262     12.9112     18.1216
H      0.0159      8.1592      8.8118
C      1.8334      5.2035      7.3188
H     -0.0160      4.1253      1.6998
C      3.8193      5.5525      5.1345
C     -9.0773     15.7041      8.8245
H     20.8194     10.9399     14.3428
H      0.2378      5.9896     -0.2612
C      8.2685      7.0977     10.5674
H     -9.9953     15.5849     10.4375
H     11.5431      5.7462     11.6466
C      4.1681      3.1512      4.4264
C     17.9189      9.7431     18.2254
C     -6.7418     12.2500      9.0087
C     -5.1621      9.1901      7.6258
C      5.7286      4.6870      7.4845
C     -7.2778     13.4979      8.2014
H     -1.3398      3.6498      7.7518
H     -3.3364      9.5159     -0.0865
H     -6.9549     12.2417     10.2540
H      9.6894      4.8720      0.5473
C     14.6873      9.7601     14.4914
H     -9.9666     17.4858      9.8644
H     -1.6218      9.5133      3.7245
