289

C      6.7576      8.6837      0.7662
N     10.7495     -2.1212      1.0686
C     -9.0484      1.8372      6.7729
C     14.9368    -10.5179      2.3013
H      1.1229      1.7200     10.0128
C     -5.2929      4.8654      2.4346
H      9.8213     -6.1692      2.6589
C     -5.4153      3.4836      3.0903
C     -9.4351      4.4010      5.5664
C      6.6249      9.9647     -1.5836
C      3.3479      7.5739      6.6575
C     -6.8925      1.9950      3.9693
C      6.0732     -4.6330      8.6349
C      0.6399      8.7075      0.8228
C      9.8871     -0.8101     -0.8517
C      8.7774      0.5370      0.6958
N      0.3100      2.7025      6.0384
C     13.6173     -6.7031      0.6558
O     11.4246    -10.3671      1.3509
C     -9.6748      4.4003      7.1437
H      0.3786      6.9346     10.9105
H      8.1544      0.2202      1.3849
C      2.9589      6.4754      4.3365
C      4.1114     10.5881      3.4874
H     -2.4427      3.9398      6.9593
C      4.0531      9.1917      3.1726
H      5.6137     -5.4606     10.4516
H      7.6281     10.3207     -1.9468
H      2.0565      3.7366      9.9417
H     -0.9794      5.8701      6.9770
H      5.6397      1.5347      8.5214
C     -9.7009      2.8466      7.7063
H     11.1823     -1.1480     -2.4709
H     -5.8383      1.7595      4.7416
O      1.2333     10.0700      2.6329
C      7.5897     -0.1793      8.7519
H      6.4303     10.6686      0.3804
C     10.4729     -1.8909     -1.6615
C     -6.9551      5.7503      9.9328
H     16.2402    -13.1518      6.2340
H     -8.8356      5.5883      8.7415
C     -6.6970      2.9720      3.0007
H     -7.3885      3.5863      7.2684
H      6.0717     10.8845     -1.9250
H      3.7744     -1.3240      9.5468
H      1.7585      7.7340      9.4103
C      4.4262     11.1184      4.7125
C     10.0038     -4.1133      5.1603
O      1.9250      8.6647      4.5103
C     -1.4014      8.1371      7.1488
C     -4.1327      7.8000     11.8120
C      7.4860      7.4837     -0.1550
C     -6.4933      6.6724     12.1853
H     18.0068    -10.0755      1.2267
H      5.0293     10.1403      1.7444
H     14.9879    -15.1156      3.9391
H      7.3765     -6.9321      8.2475
C     -5.5132      2.7270      8.4264
H     14.4408    -12.5406      1.3314
C     -5.9272      5.9638     10.8505
C     -4.4766      6.0163      3.1668
H     -4.8443      7.3345      1.8530
C     -1.0051      7.0646      5.2918
H      3.6321      8.4886      8.3953
H      4.0401     11.5487      2.8460
H     15.4764     -7.3914      0.4713
C      9.7303     -1.4443      7.8783
C     -6.9927      4.5609      9.0435
C      3.1988      7.9122      4.9335
C      9.1636      1.8059      0.7374
C     -7.9636      4.7924     12.2204
C      4.6741      8.9964      1.8049
H      9.1084     -4.5720      5.3821
H     -4.6110      7.9805      3.9382
H      3.5548      1.1640     10.6793
H      6.1444     -3.7545      9.1860
H      5.6562     12.6690      4.9337
C     -0.2981      3.1445      8.2430
H      7.9779      9.9667      2.3445
C      0.4676      8.7314     -0.8167
C      1.7362      2.1691      7.9569
H     -2.0458      6.4818     10.8387
H     11.0153     -3.7022     -2.1202
C     12.1685     -6.5314      1.3869
H     -7.3970      7.3096     11.7355
H     -1.5532      3.3045      4.9245
H      5.2740      9.6685     -0.5162
C     -2.8107      7.2359     12.6932
O      2.6575      9.8390      0.5778
C      7.5862     -4.6309      8.1979
C      3.9530      8.6029      7.4803
C      3.3337      1.4415      9.5387
C     15.2129    -11.9684      4.7110
H      7.8737     -1.1741     -0.6404
H     11.5441     -2.1309      1.5253
H      6.4226     -0.2803      6.5461
H      3.2377      7.0166      9.6966
C     17.0881     -9.4324      3.1167
C     10.9035     -4.5958      0.6465
C     -1.5186      6.9397     11.7827
H     -5.8110      1.7868      9.0863
C     -7.8431      2.3344      4.9617
H      1.7306     -1.3653      8.9677
H      4.5955     12.8118      3.4954
C      2.2424     -0.5808      8.4659
C      4.6865     -1.8557      7.4063
C     -2.5852      5.4532      4.0078
C      4.0287      9.8258      6.7375
C     15.6963     -9.3840      2.4878
C      5.2578     -5.6583      9.4293
H      1.8158     -0.5575      7.3932
H      2.2589      7.6228     -0.3281
H     10.2156     -0.0129      0.1576
H     13.1076     -8.9695      0.1436
O     -7.2565      6.9639      6.4636
C      0.6493      8.3582      4.7313
H      5.2204     -1.2992      6.5905
C     10.2002     -4.1329      3.6078
C     10.6749     -5.2877      3.0271
H      8.0909     -1.9705      9.4306
H     -4.8210      3.3530      3.9236
C     -2.6412      7.8527      7.6696
H      9.2222      2.5552      1.5635
H    -10.5578      4.3731      5.3032
H     12.2651     -2.4794     -1.1439
H     -9.5287      4.7161     13.5662
C     15.9850    -11.7995      2.2133
C     -0.1925      8.5593      2.0568
O     -9.1081      4.3414     12.8427
O     -5.4555      3.4179     10.5834
C     12.4145     -9.8609      1.6795
C      0.0680      3.9625      3.9708
C      7.0294     -2.4236      7.6124
H      9.6895     -2.3524     -2.2184
H      2.9610     10.3307      6.4702
H     12.6931     -2.8102      4.3458
H     -0.7660      8.3561     10.6544
O     13.5196     -2.3640      6.0770
C      5.7742     -2.2125      8.4176
C      0.8059      7.2479      7.1118
C      1.6291      7.4636      0.7011
H      2.6071      8.2412      2.4663
C      0.4769      7.6044      3.0273
H      7.9442      0.5652      7.8778
C     15.2475    -13.0941      3.7794
C      0.6641      2.5762      7.3595
C     10.3442     -2.1544      6.8151
C     -2.1939      3.4083      5.7281
C      4.5847     12.5188      4.6658
C      3.2076      4.0690      9.8223
C     13.5498    -10.7100      1.9502
C     11.4820     -5.1342      1.7530
C      3.7252     -1.0222      8.4844
N     15.0165    -14.2038      4.4207
C     16.4050    -11.8418      0.8332
C     -3.4491      6.2558     13.6531
H      5.7406      9.4500      5.6406
C     -2.7420      4.3181      3.0769
C     -3.0059      8.1537      9.1273
H     -4.6198      2.8505      8.8205
H     14.5344    -12.3775      6.4022
H     -4.4304      4.1448     10.7632
H      8.6110     -3.4903      6.5026
C     10.4729     -3.1236      0.1665
H      4.3516     -6.0916      9.0792
H      2.1221      5.9483      9.2844
H     -0.6330      9.3613      2.4889
H      1.5769      9.3391     -2.6514
H     15.5222    -12.1604      0.2871
H     -1.8857      3.5851      2.7987
H     -0.3864      3.9113      8.9315
C      1.8787      7.3828      2.3084
H     16.7189    -10.8851      0.4665
C      1.5797      9.5201     -1.4266
C      6.2191      9.8284     -0.1570
H     -5.5971      5.0881     11.6117
C     11.1754     -3.0572     -1.2941
H     14.6497    -13.8693      5.3570
C     -8.3041      8.6495      4.4031
C     -4.9817      7.3048      3.1093
C      8.0447      9.5356      1.3478
C      5.8857      8.2419      1.8591
C     -8.5840      6.4532      6.5318
C     15.0320     -8.0384      2.4988
C     -6.8177      5.2874     13.1444
C     -7.1000      7.6004      4.2182
C     -4.7969      6.4978     13.6985
H      2.3513     10.2033     -0.9329
C     -8.6098      5.3695      7.5885
C     14.6183     -7.8211      1.0162
H     -3.4682      8.1429      7.2216
C     -6.4189      7.4595      5.4486
H     14.2163    -11.4904      4.9216
H      9.9363      2.0579     -0.2805
H     -2.9757      4.7164      2.0764
C     -5.7808      5.3045     14.0687
H     -0.9279      4.5311      4.4468
O     -5.1866      7.3311      5.6017
H     -4.0648      8.8059     11.1231
H      8.9847      8.8157      1.6897
H      0.0021      3.2074      3.2934
H     14.0346     -8.2345     -0.8021
H     -8.1131      5.9797      4.2801
C     -0.3655      7.8860     11.3506
H     -6.6766      5.2693      7.3017
C      2.7568      6.1951      2.9269
C     -2.1190      4.8795      5.3445
C      0.4170      7.0111      5.4094
H      6.6886      9.1575     -1.9996
H     15.6170    -11.0582      4.5477
C      1.1659      5.8543      4.9055
H     15.5370    -13.7464      1.9486
H      0.9849      9.3521      3.2042
H     -2.1494      8.0149      9.9298
C      8.1732     -6.1647      8.0349
C      4.2275      0.3711      8.2684
C     -6.2463      7.6981      3.0569
C      9.9415     -2.4648      5.3898
C     12.6041     -6.7033      2.9691
C     -1.4999      6.4404      3.7212
H     10.2848     -1.7062      8.6200
H     14.7902     -9.9799     -0.3024
H     -7.6698      3.9644     11.6476
H     -2.9676      3.0577      5.0160
C      1.8403      1.1732      9.1902
H     11.3657     -1.6876      7.0800
C      0.6805      5.1695      3.6415
C     18.0601     -9.5902      2.2714
H      1.4830      4.8039      8.2060
H      5.2479      8.2239      7.6243
C     -6.2112      3.4815      9.4280
H     10.0947     -2.0684      1.9507
H      7.1237     -2.0816      6.6639
C      2.3955      6.9576      8.9853
C     -1.5007      5.9070      6.0151
C     15.0144    -12.9416      2.3397
C      1.1354      4.9326      5.8722
C      2.2549      6.6944      7.4893
C     14.1514     -9.0456     -0.1290
H     11.4776     -7.4501      1.6553
H     16.7625    -11.6084      2.8862
H     -3.8439      8.7888      9.5617
H     16.8824    -12.7337      0.5130
H      8.9147     -5.8905      7.2239
H     -5.7058      2.6444      7.2958
H     10.8521     -2.1382      5.0067
C      8.7608     -0.3713     -0.3712
H     -7.0157      0.9661      3.5804
C     12.7279     -3.3713      5.2230
C     -4.1995      6.9274      9.3489
H      9.2097     -4.0255      2.9427
C      8.2423     -1.4292      8.2103
H     -3.0691      3.4315      3.7146
H      8.9230     -2.2238      4.7995
C     -0.0806      7.8268      7.8552
C      0.6476      3.6304      5.2093
O     -3.6443      6.2630      4.3781
C     11.4988     -4.6657      5.6243
C      6.1890      0.7319      6.8713
C     -7.7692      1.7363      6.2727
C     15.8325    -12.2569      6.0955
H      6.9030      1.3493      6.9947
H      4.8937      2.8624      8.8483
H      7.8903      0.1287      9.6508
H     14.0253     -2.8349      6.8201
H      4.2892     13.2885      5.2587
H     -0.2752      7.9265      9.1185
C      2.0286      5.2920      7.1458
H     12.4424     -8.7677      2.0523
C     -8.8765      5.7094      5.1722
C      3.6181      2.7250      9.0464
H      8.4626     10.3425      0.9310
H     13.3209     -6.9925     -0.3519
C     -4.7774      6.9666     10.5606
H      3.5794      4.1138     10.6484
H     -1.0737      6.0994     12.5446
C     17.2786     -9.5243      4.6153
C      4.7043      9.8212      5.4003
C      6.1395     -0.4877      8.8956
C      7.7218     -3.6142      7.3836
C     -7.3867      4.6714      7.7832
C      5.6028      0.5586      8.0989
H     -1.0828      4.0493      7.7035
H      9.4298     -3.3225     -0.1617
H      5.9227     -0.1046      9.9009
H     -3.1236      5.2391     13.7258
C      1.6199      9.6999      1.2518
H      3.6741      4.7302      9.1858
H     10.8187     -3.1456      3.3140
