287

C      7.1718      8.7002     13.4501
N     -2.1023     10.4494    -11.8402
C      3.8055      1.5659      7.2528
C      1.9646      2.5025    -10.1309
H      1.3886      0.9044     10.0362
C      7.5759      5.2020      2.7902
H     -3.0451      6.8791    -10.4689
C      7.5499      3.8085      3.0445
C      3.6029      4.1036     -7.2034
C      5.9039     10.6903     11.9035
C      3.3810      7.3080     19.5662
C      6.3261      2.0758      4.3798
C      6.1749     -3.1552      8.8521
C      0.7864      8.6520     13.5578
C     -3.7166     11.8542    -13.4383
C     -4.7658     13.5146    -12.2201
N      1.2690      2.5340      6.1868
H      4.7985     10.4638     11.8321
C      0.8010      6.1783    -11.9738
O     -0.7120      2.8117    -12.4205
C      3.3344      4.0224     -5.4366
H      0.0804      6.7604     10.5266
H     -5.8772     13.8964    -12.1984
C      2.9657      6.4361     17.4577
C      3.8022     10.5082     16.1818
H     -1.3488      2.1095      5.4663
H      4.1651      5.8541      1.3671
C      4.0778      9.2568     16.0059
H      4.3511      6.8968     -3.9008
H      6.3810     11.0569     10.8982
H      3.7928      5.7346     -4.1772
H      6.0205      1.3247      9.5613
C      3.3587      2.6077      8.0681
H      7.3744      2.4355      4.6735
O      1.5319     10.4000     15.3480
C      7.7977     -0.7797      8.9954
C     -3.3387     10.8828    -14.6872
C      6.1550      5.8431     -2.8245
H      1.7348     -0.1615      9.1187
H      2.1368      5.5125     -3.6829
C      6.3309      3.2016      3.3507
H      5.8245      3.9380     -5.6075
H      3.6860     -1.3892      9.4343
H      2.7847      7.0744     -3.4341
C      4.3332     10.7629     17.4364
C     -3.0348      8.7280     -8.0146
O      2.0138      8.9603     -8.2005
C     -1.4225      8.2079      7.0133
C     -3.9116      7.7425     11.7665
C      7.7740      7.5010     12.5667
C      6.5574      7.0223     -0.8380
H      5.6368      4.6057    -10.7543
H      5.3833      9.8873     14.5174
H      1.3173     -2.0671     -9.0143
H      7.9646     -5.9457      8.7968
C      7.9456      2.8057     -4.1025
H      0.9005      1.8023    -11.7269
C      6.8681      5.9842     -1.7378
C      8.0712      6.1148      3.6254
H      8.3114      7.8867      2.3862
C     -1.1009      6.6382      5.1242
H      3.8804      8.2594     21.2907
H      3.9091     11.0949     15.2686
H      3.9705      6.5618     16.2889
H      3.9777      4.5062     10.5489
H      2.5500      6.0130    -12.3937
C     -3.3064     11.4062     -5.1027
C      6.0331      4.6820     -3.3587
C      2.9869      7.8950     18.0072
C     -3.7214     14.2920    -12.2606
C      5.3978      4.6507     -0.3474
C      4.8755      9.0628     14.8633
H     -4.0572      7.8538     -7.9786
H      8.0420      8.2789      3.7770
H      7.1122     -2.6573      9.0626
H      5.9131     12.1833     17.6968
C     -0.4216      3.2696      7.7169
H      7.8004      9.9981     14.8613
C      0.5828      8.4526     12.0807
C      1.9600      2.2714      8.3208
H     -1.8797      6.2687     10.6006
H     -1.5414      9.5364    -14.7990
C     -0.6659      6.3024    -11.2807
H      5.7992      7.8325     -1.0080
H     -2.5883      2.2372      4.0424
H      7.4590     -6.4964      7.3844
C     -2.6276      7.1380     12.4307
O      2.8010     10.0627     13.5585
C      6.6041     -4.4115      7.8379
C      3.9195      8.4371     20.1479
C      3.2674      1.3174      9.8155
C      3.1570      0.1420     -7.6025
H      8.6628     10.1431     13.5854
H     -2.6466     10.4404    -10.8815
H      6.9811      1.1446      7.0884
H     -2.4428      5.2895      6.5559
H      4.5380      6.4807     -2.1899
C      4.0327      3.6267     -9.4926
C     -1.8986      8.2201    -12.7351
C     -1.4443      6.4975     11.5249
H      8.8617      2.1052     -3.5565
C      5.2103      2.2998      5.3692
H      1.9714     -1.6837      9.3317
H      5.0468     12.5681     16.3553
C      2.0699     -1.0896      8.5438
C      4.2362     -1.6809      7.3950
C     -2.0137      4.9402      3.6567
C      3.8117      9.7170     19.3695
C      2.9725      3.6677    -10.3280
C      4.8637      7.0243     -2.8915
H      1.0119     -0.8754      7.9192
H      2.4448      7.9406     13.2059
H      9.0087      6.2763      5.0062
H     -2.7725     12.5285    -13.2392
H      2.3385      3.3027    -13.0790
O      5.5776      6.7820     19.2932
C      0.7295      8.3248     -8.3763
H      4.4814     -1.0238      6.2631
C     -2.5600      8.9090     -9.3650
C     -2.1793      7.3530     -9.9818
H      7.8407     -3.0622      8.4088
H      8.4921      3.6138      3.4168
C     -2.4790      7.9815      7.6897
H     -3.1448     14.9634    -11.8309
H      2.0662      2.3924     -9.0477
H      3.8341      5.6596     -0.0720
C      2.7436      1.3108    -10.5446
C     -0.0881      8.5287    -10.8101
O      4.0610      5.1369     -0.8986
O      7.7697      3.7240     -1.8252
C     -0.1064      3.3710    -11.2836
C      0.0699      4.0022      4.0654
C      6.6456     -2.1516      6.9969
H     -4.0069     10.0485    -14.8784
H      2.7582      9.7833     18.9696
H     -0.4360     10.1134     -8.7155
H     -0.2444      8.3039     10.1366
O      0.0984     10.1271     -6.6974
C      5.5935     -2.1514      8.0853
C      0.7902      7.1755      6.7958
C      1.6141      7.5858     13.9150
H      3.0812      8.3359     15.1908
C      0.6306      7.7262     -9.8117
H      8.3716      0.0809      8.7799
C      2.2217     -0.3039     -8.6457
C      0.7569      2.6205      7.6355
C     -2.4919     10.6126     -5.9571
C     -2.0794      2.8414      4.9159
C      5.1667     11.8327     17.2019
C      3.2223      3.6760     10.3035
C      0.6090      2.4342    -10.7804
C     -1.2996      7.6667    -11.3011
C      3.5468     -0.7400      8.3224
N      1.4364     -1.4167     -8.2389
C      2.5335      1.0294    -12.0717
O      5.0124      6.2578      1.2251
C      9.8214      6.2892      0.6984
H      5.8620      9.5994     18.6428
C     -2.9040      4.4915      2.7758
C     -2.8613      7.4861      8.8382
H      8.2005      3.0359     -5.1806
H      1.8035      0.5079     -6.0880
H      7.3070     -3.6788      5.6223
C     -2.1060      9.5194    -12.9171
H      5.2674      7.9892     -2.5551
H      0.9439      6.8830     -3.7036
H     -0.4006      9.5385    -10.6202
H      1.6123      8.3911     10.0670
H      3.3037      1.0415    -12.8731
H     -0.3990      3.3835    -13.3119
H     -0.7629      3.1185      8.5896
C      2.1064      7.7384     15.3804
H      2.1194      0.1126    -12.2490
C      1.3889      8.9824     11.1087
C      6.7547      9.7873     12.4295
H      7.8719      5.8090     -1.6144
C     -1.9783     10.2136    -14.1144
H      2.0402     -1.9285     -7.1548
C      4.2245      8.4854     17.2902
C      7.8648      7.4938      3.2852
C      8.3610      9.5075     14.2874
C      6.2027      8.4199     14.6937
C      4.3003      6.2159     19.7332
C      2.3620      4.9550    -10.6640
C      6.0917      5.8001      0.4158
C      5.4881      7.5113     16.9148
C      8.4294      6.5482      0.8089
H      2.0695      9.5644     11.1933
C      4.2866      5.1398     -5.1838
C      1.8156      5.0473    -11.9359
H     -3.3801      7.8135      7.0815
C      6.2176      7.1524     18.3076
H      1.8734      1.7396      6.0824
H     -2.8501     13.6597    -12.3844
H     -2.8541      5.0416      1.6885
C      7.2770      5.7038      1.3325
H      0.1920      3.1234      3.4065
O      7.3932      7.2860     18.2229
H     -5.0321      8.8068     10.0336
H      9.1073      9.0083     14.4267
H      0.9431      3.5253    -13.0796
H      4.7678      5.2387     -8.1457
C     -0.3839      7.6178     11.1973
H      6.3661      5.5366     -5.2374
C      2.9071      6.2133     15.9590
C     -1.4240      4.1809      4.8029
C      0.4490      6.9862      5.3382
H      5.7167     -3.3445      9.9435
C      1.4783      5.7901      4.7724
H      1.1586     -0.2224    -10.8419
H      2.0165      9.6675     15.8689
H     -2.2607      6.7899      9.5754
C      7.1447     -5.7373      8.0321
C      4.0827      0.5066      8.3627
C      6.4686      7.7572      3.0001
C     -3.0471     10.1890     -7.2215
C     -0.0199      6.2586     -9.8550
C     -1.4167      6.2624      3.7330
H     -3.0086     12.3147     -4.7186
H      2.2888      4.7827    -13.8303
H      4.3733      8.8990     14.0049
H      5.2266      3.6842      0.4395
H     -3.0763      3.1838      5.2466
C      2.0591      1.5677      9.3949
H     -1.6831     11.3233     -5.7167
C      0.7361      5.1574      3.5568
C      5.2646      3.8487    -10.0838
H      1.4798      4.6134     -5.0840
H      5.0732      8.2216     20.1289
C      7.2886      3.6610     -3.1132
H     -2.2158     11.3523    -12.1286
H      6.6464     -1.4276      6.0714
C      2.0321      6.7019     -4.1372
C     -1.5428      5.1949      5.8643
C      1.9513      0.0758     -9.9661
C      1.7144      4.7781      5.7207
C      2.0750      6.6743     -5.6709
C      1.8424      4.1465    -13.0515
H     -0.9936      5.2990    -11.0280
H     -3.4770      9.2537      9.1067
H      6.3616     -5.9819      8.6479
H      7.5183      1.8068     -4.1868
H     -2.4881     10.6567     -7.8752
C     -4.8030     12.1941    -12.8346
H      5.9055      1.1839      3.8913
C     -0.3813      9.2747     -8.0571
C     -3.3054      8.4653      9.5760
H      5.5701      4.3198     -1.4102
H     -3.3981      9.4249     -9.7620
C      8.1685     -1.9130      7.9739
H     -3.0507      3.4903      2.8222
H     -4.1110     10.0854     -7.1021
C      0.0808      8.1464      7.5430
C      0.9247      3.6957      5.2854
O      8.7726      5.5422      4.7084
C     -1.4264      8.1454     -7.5316
C      6.0725      1.4866      7.3626
C      4.9241      1.7971      6.6144
C      2.7426      0.8226     -6.5933
H      6.2853      2.6345      7.4974
H      5.0162      2.6922      9.4383
H      7.9449     -0.6832     10.1405
H      0.0572     11.1453     -6.6822
H      4.1940      0.2984     -7.9490
H      0.2387      8.3709      8.5401
C      1.9500      5.0148     -5.8692
H     -0.7848      3.7822    -10.5953
C      3.8463      5.5051     -7.5264
C      3.9274      2.6180      9.4628
H     -5.2373     11.6250    -12.1113
H      0.5293      5.8675    -13.0719
C     -4.2282      8.3129     10.5694
H      3.0178      3.4498     11.2799
H     -1.1359      5.8286     12.3466
C      3.8905      3.0332     -8.2814
C      4.6887      9.6412     18.2897
C      6.2334     -0.5883      8.8805
C      6.7403     -3.5282      6.5473
C      5.6280      4.9135     -4.9034
C      5.6225      0.7130      8.5685
H     -1.2016      3.2204      6.9694
H      7.7876     10.0330     12.1668
H      5.6992     -0.7917      9.8753
H      9.8443      5.7742     -0.3003
C      1.6241     10.0034     13.7620
H      2.4266      3.8965      9.5260
H     -1.5809      9.4849     -9.8537
