285

C      7.3428    -16.9734     13.9522
N     -1.6910     10.6032      1.2858
C      3.8589    -11.4226     20.2205
C      2.1703      2.2038      2.2553
H      1.0126      0.8407     22.5623
C      7.9746      4.9457      2.6026
H     -3.2817      6.7733      2.5550
C      7.8676      3.6435      3.1975
C      3.1213     -8.8356     18.5679
C      6.9592    -15.8416     11.9361
C      3.1698     -5.6517     19.9081
C      6.0471      1.7646      3.9938
C      6.2226     -3.2490     21.5588
C      0.7157      8.9982     13.5740
C     -3.4601     12.1331     -0.2560
C     -4.4689     14.1333      0.8298
N      0.6959      2.4163     18.8515
H      7.8757    -16.2166     11.5239
C      1.2076      6.2605      0.6901
O     -0.9561      2.8057      0.8825
C      3.2135     -8.8630     20.2592
H      0.0200      6.7810     10.5843
H     -5.4697     14.1240      1.4130
C      2.9534     -6.5875     17.3908
C      3.6394    -15.5338     16.2283
H     -2.1157      2.9026     19.3794
H      4.1995      6.2289      0.8016
C      4.1179    -16.8036     16.1342
H      5.5232      7.2794     -4.1078
H      6.8731    -14.9196     11.3083
H      3.8217      5.5810     -4.3669
H     -0.9491      5.3125     19.7018
H      5.9845      1.0690     22.3093
C      3.3768    -10.0957     20.9512
H     -2.8212     11.9772     -2.0481
H      6.7898      1.2992      4.3813
C      7.8733     -0.8750     21.6304
C     -2.9949     11.3412     -1.4112
C      6.1158      5.7651     -2.8681
H      2.0006     -0.9734     22.4206
H      2.2303      5.3297      9.3847
C      6.3852      3.1205      3.1482
H      4.9926      3.2089     -5.0179
H      4.3461     -1.3727     22.4588
H      2.7994      6.7113      9.5858
C      3.6795    -14.8770     17.6132
C     -2.8185      8.5548      4.9948
O      1.9013      8.5849     18.0232
C     -1.4802      8.1440      7.1999
C     -3.9830      7.7270     11.8073
C      7.7675    -18.4071     12.7422
C      6.6355      6.8001     -0.7650
H      5.4226      4.9735      2.3467
H      6.3988      3.7211     -0.8833
H      4.2271    -15.8822     14.2756
H      0.7478    -12.5313     18.9563
C      7.7307      2.5405     -3.8723
H      0.4774      1.3345      1.4390
C      7.0922      5.9715     -1.9696
C      8.0413      5.9123      3.7244
H      8.1183      7.2168      2.3545
C     -0.9796      6.7786     18.0526
H      3.6429     -4.7751     21.8378
H      3.5813    -14.6562     15.5508
H      4.1004      6.1589      2.7877
H      3.0389      4.9052     23.0746
H      3.3603      5.0082      0.7811
C     -3.2172     11.4754      7.3396
C      6.5756      4.7789     -3.8304
C      3.0097     -5.1771     18.0592
C     -3.3481     14.9966      0.8971
C      5.5473      4.4944     -0.2662
C      4.8009    -16.9189     14.7538
H     -3.6457      7.9197      5.3175
H      8.0326      8.1811      4.0915
H      3.4542      0.8549     23.6376
H      6.1403     -3.0244     22.6614
H      5.2838    -13.4655     18.1501
C     -0.1390      2.6374     21.0757
H      8.1638    -15.1274     14.7586
C      0.2804      8.5335     11.8564
C      2.0495      2.2697     21.0708
H     -2.0346      6.1665     10.5371
H     -1.5553      9.9329     -1.7713
C     -0.2865      6.3190      1.3759
H      5.7950      7.8293     -1.1015
H      5.9213      3.3635      5.5991
H      8.7626     -5.8035     20.4715
C     -2.7838      7.2292     12.3391
O      2.5512     10.4323     13.9387
C      7.0808     -4.0610     20.8452
C      3.7589     -4.5461     20.7326
C      3.4259      1.3764     22.6386
C      3.2909    -12.5463     17.8975
H      9.2900    -15.6469     13.3113
H      6.6018     -0.1644      6.3969
H     -2.6594      6.1741     19.3383
H      4.0481      6.3262     -3.4174
C      4.0971      3.5388      3.3240
C     -2.0031      8.2997      0.4234
C     -1.6004      6.7942     11.4450
H      7.7183      1.6938     -3.2588
C      5.3248      2.4499      5.2941
H      1.6264     -1.5889     20.4566
H      4.4821    -13.4930     16.4676
C      2.1864     -0.8102     21.1670
C      4.3899     -1.6989     20.3791
C     -1.9008      5.1258     16.5208
C      3.7130     -2.9344     19.9505
C      2.8583      3.5437      2.5211
C      5.0996      6.7198     -3.2269
H      1.7160     -0.0492     20.4659
H      2.7791      8.1549      0.6971
H      0.8664     11.7220     14.7778
H      8.3609      6.1845      5.4832
H     -2.6003     12.1986      0.5285
H      1.3020      4.2160     -0.9780
O      5.5571      7.2616      6.7175
C      0.6374      7.9450     17.4045
H      4.1071     -1.0705     19.5573
C     -2.7484      8.6063      3.3206
C     -2.2542      7.2722      2.7755
H      8.5375     -2.7510     21.2155
H      8.4074      3.8449      4.1816
C     -2.5835      8.1831      7.8612
H     -3.9539     15.7486      1.4506
H      1.9851      3.0847     17.3225
H     -0.7981     11.1029     -1.0681
H      4.5444      5.1892     -1.8394
C      2.6582      0.8020      1.8920
C     -0.0077      8.4881     14.8981
O      4.4398      4.9624     -0.9750
O      8.1506      3.9274     -2.2696
C     -0.0714      3.1660      1.6524
C     -0.0397      3.8674     17.1694
C      6.9659     -2.0267     19.7455
H     -3.7685     10.4807     -1.7401
H      2.6350     -2.9193     19.8019
H     -0.3401     10.0237      4.3024
H     -0.7610      8.2373     10.1038
O      0.1386      9.6630      6.2559
C      5.9422     -1.9747     20.8591
C      0.7421      7.0993      6.9732
C      1.9675      7.5926      1.0253
H      2.3897      8.2625      3.1971
C      0.6386      7.7235     15.9660
H      8.2164      0.2052     21.7959
C      1.8776    -12.8783     17.2693
C      0.9517      2.4463     20.1782
C     -2.4985     10.9674      6.0217
C     -2.0043      3.3422     18.4464
C      4.3634    -13.6463     17.5246
C      2.7950      3.8112     23.2272
C      0.7352      2.1209      2.1561
C     -1.2433      7.5388      1.5487
C      3.8148     -0.7915     21.5111
N      1.0083    -13.4033     18.2311
C      2.4491      0.5790      0.4667
O      4.9716      6.3365      1.3396
C      9.7056      6.2308      0.4367
C     -2.2672      4.1109     15.5905
C     -2.5510      7.6839      9.2253
H      8.6839      2.6575     -4.2305
H      2.2460    -11.1384     18.8903
H      7.4384     -3.7616     18.1513
C     -1.7278      9.8651      0.2532
H      4.8153      7.5489     -2.4387
H      0.9745      6.9359      9.3372
H     -0.5568      9.2080     15.4212
H      1.6943     10.0019     10.7067
H      2.2475     -0.4751      0.6577
H      0.0571      1.9255     21.9282
C      2.2255      7.5459      2.4640
H      1.9049      1.2613     -0.1860
C      1.1933      9.4108     11.5103
C      6.6482    -15.7384     13.2273
H      8.0225      5.4144     -2.0852
C     -1.7916     10.6302     -0.9197
H      1.8208    -14.0585     18.6592
C      4.1986      8.5135      4.7771
C      7.6500      7.2988      3.4556
C      8.8106    -16.1268     14.3566
C      6.2198    -17.3077     14.9298
C      4.1377      6.0814     -6.4593
C      2.0206      5.0209      2.5875
C      6.1478      5.7347      0.3652
C      5.5826      7.6703      4.5317
C      8.3557      6.4696      0.8095
H      2.1877      9.5032     12.1235
C      4.2962      5.0225     -5.2527
O      0.4527     11.2440     13.7975
C      2.2099      5.0476      0.9773
H     -3.1654      8.8044      7.3212
C      6.2719      7.5386      5.6041
H     -2.9405     15.4210     -0.1287
H     -2.9092      4.7907     14.8108
C      7.4259      5.6602      1.3421
H     -0.6847      3.0496     16.3844
O      7.6335      7.1594      5.7822
H     -5.5458      8.4412     10.6645
H     -3.1291      8.4911      0.8172
H      2.5916      3.6327     -0.2976
H      4.5700      4.5425     -8.4687
C     -0.6101      7.8490     11.0941
H      6.1715      4.4313     -5.8299
C      2.9353      6.2345      2.8809
C     -1.4191      4.5183     17.9023
C      0.3752      6.8486     18.4398
H      5.1528     -3.6261     21.3464
H      3.3410      2.1287      4.9641
C      1.5026     -7.1637     17.7538
H      0.5795    -13.4802     15.9537
H     -2.2091      6.6827      9.4081
C      7.7788     -5.3810     20.8978
C      4.0473      0.6977     21.3974
C      6.1227      7.7180      3.0958
C     -3.4362      9.8394      5.4515
C     -0.0058      6.3270      2.8851
C     -1.3044      6.3088     16.5906
H     -2.6101     12.2180      7.8512
H      1.2512      3.3073      0.5064
H      4.2470    -17.6163     14.4144
H      5.5436      3.6658      0.5508
H     -3.1230      3.7297     18.1896
C      2.0593      1.4950     22.2746
H     -1.3277     10.5603      6.4089
C      0.8319      5.1520      3.5915
C      5.4122      4.0092      2.9424
H      0.8866      4.5659      7.8540
C      7.5091      3.7551     -3.2892
H     -1.5381     11.7040      1.6499
H      6.6755     -2.0419     18.6709
C      1.9363      6.4496      9.0369
C     -1.7206      5.7309     18.9844
C      1.6802    -13.1079     15.9045
C      1.8182     -8.3951     18.7052
C      1.9324      6.3227      7.4709
C      1.7266      4.1182      0.0877
H     -1.1292      5.9657      0.8299
H     -4.1458      8.6966      8.8800
H      3.7051      0.4435     -0.0037
H      7.1497     -6.2786     20.8583
H      7.0593      2.4693     -4.6118
H     -3.7013     10.4395      4.4057
C     -4.5939     13.0543     -0.0835
H      5.4316      0.9943      3.4355
C     -0.5118      9.0460      5.1624
C     -3.5590      8.5349      9.6504
C      8.3083     -1.6410     20.6440
H     -2.8374      3.5877     16.2480
H     -4.1835      9.5884      6.1094
C     -0.3083      7.5962      7.7440
C      1.1725      3.4187     17.8831
O      8.8354      5.6216      4.6487
C     -1.5033      8.1570      5.5159
C      6.1170      0.7703      6.7786
C      5.0296      1.5513      6.2447
C      2.9925    -12.1190     19.2289
H      4.8412      2.7953     22.5564
H      0.2534      9.1300      7.0611
H      3.7342    -11.7615     17.2948
H     -0.0650      8.1850      8.5696
C      1.8010      4.8139      7.1789
H     -0.0305      4.1623      1.9458
C      4.2243      5.6961     -7.9459
C      3.7566      2.8401     22.4418
H     -5.5229     12.6201     -0.3769
H      1.1282      6.2934     -0.3542
C     -4.4238      8.1820     10.6557
H      2.7633      3.4752     24.2709
H      7.2970      5.4414     -4.2477
C      3.8750      3.0822      4.7863
C      4.2039      9.8162      5.5749
C      6.3713     -0.7926     21.6401
C      7.1666     -3.5155     19.4870
C      5.6562      4.3300     -4.9370
C      5.8465      0.5671     21.3807
H     -0.1583      3.6135     21.5074
H      6.1276    -15.0081     13.7441
H      5.9718     -0.9928     22.8123
H     10.5343      5.5198      0.6369
H      0.9350      1.4689      3.1293
C      1.3440     10.2312     13.8443
H      1.8303      3.6230     22.8698
H     -1.9320      9.3454      2.8008
