283

C      7.1790      8.7819     13.8580
N     10.9039     -2.6473      1.3687
C      3.6315      1.5264      7.0559
C      2.0963      2.5504      2.4801
C      7.5873      5.1653      2.8541
H      9.9499     -6.1002      2.7799
C      7.5899      3.7821      3.2901
C      3.4618      4.2805      5.5730
C      6.6506      9.8139     11.7488
C      3.2495      7.4074     19.3957
C      6.0278      2.1140      4.0366
C      6.1459     -3.4556      8.7913
C      0.6524      8.7706     13.4978
C      9.5294     -0.8340     -0.4970
C      8.2736      0.8420      0.5229
N      1.0074      2.4958      6.0450
H      6.0325      8.8521     11.2331
C     13.7802     -6.6364      0.5127
O     -0.3690      2.0719      0.2778
C      3.2535      4.3616      7.1281
H      0.3065      6.9691     10.6257
H      7.4800      1.7469      0.9572
C      3.0739      6.3872     17.2567
C      3.6831     10.5944     16.4681
H     -1.3738      2.3008      5.3973
H      5.5873      6.7148     15.0234
C      3.9701      9.3683     15.9883
H      4.1154      6.9670      9.1932
H      6.6678     10.8515     11.4747
H      4.0428      5.2515      8.7034
H     -0.7163      5.3432      6.8827
H      6.0074      1.3250      9.1411
C      3.2607      2.8834      7.8312
H      9.7822     -1.5957     -2.6737
H      7.0729      1.7646      4.0275
C      7.8015     -0.7897      8.8037
C      9.6770     -1.8437     -1.6655
C      5.9899      5.8432      9.9706
H      1.5448     -0.4779      8.0008
H      0.7060      6.3409      8.6287
C      6.3334      3.3985      3.5476
H      5.0891      3.0838      7.5699
H      3.5860     -0.8695      9.5652
H      2.2910      6.0304      9.4397
C      4.4520     11.0489     17.6780
C     10.3289     -4.2816      5.0142
O     15.0751     -4.1475      4.9943
C     -1.3672      7.8289      6.9890
C     -4.0937      7.9261     12.0742
C      7.4704      7.5151     13.0730
C      6.5031      6.6115     12.4364
H      5.5865      5.3020      3.0008
H      4.8207      9.7846     14.0844
H      2.0762     -1.9118      4.9165
H      7.9683     -5.7679      9.3229
C      7.6075      2.6835      8.8785
H      0.5098      1.2573      2.3457
C      6.7101      6.0242     11.1344
C      8.3209      6.1381      3.6352
C     -0.8348      6.8267      4.9330
H      3.1516      8.4431     21.2103
H      4.1200     11.4025     15.8453
H      3.6534      6.3772     14.7428
H      2.7576      4.2095     10.0126
H     15.8096     -7.8137      0.4042
C      9.7108     -1.3448      7.2993
C      6.4372      4.8082      9.0001
C      3.2734      7.7160     17.8378
C      9.4059      1.4477      0.4668
C      5.4974      4.3356     13.3649
C      4.6868      8.9082     14.6860
H      9.8947     -5.2739      5.6157
H      8.2295      8.6008      3.3093
H      3.0416      0.8181     10.6215
H      6.5465     -3.1070      9.6575
C     -0.6058      3.2750      7.8900
H      8.4436     10.2989     14.7645
C      0.5096      8.5567     11.9908
C      1.8046      2.3433      8.3210
H     -1.9774      7.0667     10.2400
H     10.7355     -3.6626     -1.8086
C     12.2689     -6.6701      1.1749
H      5.6828      7.4161     12.4253
H     -2.3165      2.5299      4.0440
H      7.9336     -5.9922      7.8303
C     -2.8446      7.4021     12.5368
O      2.8043     10.1111     14.1499
C      6.9666     -4.1751      7.8933
C      3.8673      8.3181     20.4928
C      3.1477      1.0164      9.5594
C      3.0592      0.4458      5.0365
H      8.9483      9.8580     13.2083
H      6.2459     -0.0163      6.6224
H     -2.2806      5.1202      6.4272
H      4.3973      7.4754     10.9302
C      4.0147      3.6171      3.3825
C     10.8525     -4.5115      0.4134
C     -1.9373      7.1923     11.4355
H      8.4956      2.6722      9.4864
C      5.0681      2.1588      5.2187
H      1.6802     -1.9703      7.7153
H      4.5384     12.7116     16.3618
C      2.2632     -1.1575      7.8091
C      4.4827     -1.7963      7.5362
C     -1.9005      5.1030      3.7053
C      3.8804      9.7617     19.8450
C      2.6976      3.7572      2.6374
C      4.7562      7.0028      9.9630
H      2.5072     -0.6511      6.7586
H      2.5315      7.3303     12.8342
H      1.4529     11.8451     13.2492
H     10.3996     -0.4605     -0.0407
H     13.1004     -9.0237     -0.4113
O      5.8018      6.7672      6.5648
C     13.9715     -4.6660      4.4180
H      4.8104     -1.0894      6.7895
C     10.3456     -4.0260      3.5004
C     10.9122     -5.4429      2.8201
H      8.5789     -3.0227      8.3334
H      8.4621      3.1095      3.5860
C     -2.7038      7.7625      7.5781
H      9.2166      2.2225      1.2078
H      4.8151      5.5284     12.2885
C      2.7155      1.1230      2.0734
C     12.7473     -4.4275      2.0402
O      4.3938      4.6536     12.4765
O      7.1996      3.6785     11.0056
C     -0.5358      2.7617      1.4127
C      0.1691      4.0957      4.2249
C      6.9373     -2.0749      6.9855
H      8.6569     -2.2612     -1.6174
H      2.8151      9.8676     19.4260
H     12.6127     -3.0839      4.1979
H     -0.6250      8.5060     10.4167
O     13.5561     -2.8241      6.1742
C      5.9282     -2.0313      7.9993
C      0.9230      7.2012      6.6354
C      1.7071      7.4419     13.5846
H      2.4818      8.4596     15.5045
C     13.7152     -5.1828      2.9465
H      7.9156      0.0299      8.2087
C      2.1533     -0.0622      4.0082
C      0.5686      2.7066      7.5621
C     10.5024     -2.1168      6.7018
C     -1.9957      3.0454      5.0445
C      4.9412     12.2735     17.2318
C      3.5127      3.6698     10.4871
C      0.6535      2.4108      2.2490
C     11.7019     -5.2348      1.4135
C      3.6564     -0.9590      8.4215
N      1.4702     -1.1201      4.7537
C      2.3975      0.9553      0.6840
O      5.1874      6.5194     14.0600
C      9.5645      6.3757     13.4568
H      5.4068     10.1947     19.0382
C     -2.5518      4.3954      2.7338
C     -2.9536      7.6761      8.9752
H      8.0434      3.1172      8.0278
H      1.6637      0.8201      6.9041
H      7.7445     -4.2185      6.0911
C     10.6807     -3.1806      0.1442
H      5.2558      7.9229      9.6855
H      1.9863      7.8260      9.1022
H     11.9709     -3.1560      1.7133
H      1.4259      8.5893     10.5090
H      3.3313      0.8089      0.1358
H     -0.9756      2.1336     -0.5498
H     -0.4847      4.2525      8.3161
C      2.0769      7.6083     15.1270
H      1.6988      0.1370      0.8515
C      1.7464      8.7586     11.4899
C      6.8200     10.0385     13.0792
H      7.6124      5.5117     11.4814
C     11.0235     -2.7592     -1.4105
H      0.5071     -1.3472      4.3752
C      4.4732      8.6835      4.4246
C      7.9836      7.5776      3.1097
C      8.5515      9.2439     14.2093
C      6.0056      8.5999     15.0257
C      4.4462      6.3164      6.3371
C      2.0241      5.0750      2.4319
C      6.3656      5.5499     13.6044
C      5.7634      7.7739      4.2791
C      8.3749      6.5693     13.8503
H      2.3143      9.6662     11.5082
C      4.4187      5.2359      7.5958
O      1.0440     11.1387     13.2585
C     14.6934     -7.8101      0.6145
H     -3.3730      8.1689      6.8814
C      6.2812      7.4050      5.5665
H      0.3920      1.8109      5.4498
H     10.3548      0.8796      0.0977
H     -3.2896      4.6065      1.9935
C      7.5701      5.4716     14.3976
O      7.6160      7.3707      5.5691
H     -5.4185      7.5248     10.1883
H      9.3004      8.6458     14.5547
H     14.4857     -8.8051     -1.2324
H      4.9554      5.7607      4.6744
C     -0.3928      7.7060     11.0206
H      6.6902      4.1926      7.0225
C      2.8537      6.2786     15.6248
C     -1.0899      4.2434      4.8608
C      0.7975      6.7595      5.2072
H      5.2359     -3.9046      8.9593
C      1.7131      5.6683      4.6999
H      1.3518     -0.5939      2.0904
H     -3.2168      6.6151      9.3808
C      7.2218     -5.6116      8.3978
C      4.1159      0.5056      8.3242
C      6.4613      7.6761      3.0850
C      9.7821     -3.0851      5.7122
C     12.7981     -6.6742      2.7806
C     -1.1889      6.5063      3.6387
H     10.2814     -1.0552      8.1440
H     14.4096     -9.6917      0.3909
H      4.1781      8.1876     14.2375
H      4.8065      4.0832     14.2034
H     -2.9442      3.1046      6.0431
C      1.7891      1.2991      9.3407
H     11.4908     -1.8021      6.5937
C      0.9540      5.2305      3.4459
C      5.1838      4.3713      3.3381
H      1.2177      4.1689      7.7083
C      6.9221      3.8875      9.7738
H     11.4678     -1.8610      1.1109
H      6.3246     -1.6683      5.8377
C      1.7436      6.7936      8.8923
C     -1.2471      5.3662      6.0750
C      1.9905      0.0486      2.6492
C      2.1237      4.6724      5.6041
C      2.1423      6.9150      7.2476
C     14.1592     -8.9798     -0.2048
H     11.9252     -7.5684      0.6892
H      3.7112      1.2564      2.6054
H     -4.1018      9.6545      9.5143
H      2.1254      1.8784      0.4984
H      6.4304     -6.1531      8.8105
H      6.8080      1.9745      9.1192
H      9.7184     -2.4381      4.7988
C      8.2958     -0.3822     -0.4380
H      5.6177      1.6485      3.1985
C     12.8253     -3.7510      4.9593
C     -3.6642      8.5742      9.8376
C      8.5225     -1.9011      7.8597
H     -2.8460      3.3923      3.0064
H      9.0225     -3.2733      6.4442
C      0.0055      7.9064      7.4527
C      1.1475      3.6133      5.2772
O      8.8627      5.7366      4.6712
C     11.6466     -4.6014      5.6082
C      6.1276      0.8074      7.1990
C      5.0539      1.5895      6.4926
C      2.7136      0.7921      6.3551
H      6.9272      1.2937      7.6727
H      5.0799      2.2375      9.4798
H      8.2086     -0.9844      9.6593
H     12.7697     -2.3871      6.6315
H      4.0486      0.8120      4.9641
H     -0.1852      7.5801      8.5889
C      1.9505      4.8131      7.1239
H     -1.6652      3.3595      1.4004
C      4.2028      5.5230      5.1482
C      3.9218      2.7016      9.4882
H      7.4031     -0.6773     -0.9352
H     13.3235     -6.6110     -0.4692
C     -4.4336      8.1077     10.9562
H      4.2420      4.3941     10.5812
H      7.0609      5.1608      8.3126
H     -1.3370      6.2706     11.6173
C      3.9526      2.9511      4.6485
C      4.5153      9.8260     18.4296
C      6.2579     -0.9481      9.0732
C      7.3856     -3.5022      6.7872
C      5.6901      4.1774      7.6853
C      5.7095      0.5270      8.4640
H     -1.3264      3.2227      7.0385
H      7.7229     10.7087     13.2477
H      6.0603     -1.4449      9.9687
H     10.2853      5.7532     13.9453
C      1.6348      9.9515     13.7764
H      2.8727      3.4842     11.4065
H     11.3781     -3.9208      3.4937
