9

H      7.8816      3.7891      8.9848
C      7.6379      2.9803      9.5631
O      5.3714      3.1357     10.8001
O      7.3370      3.9839     11.6035
H      7.6982      2.1052      8.6855
H      7.1927      3.0776     11.8793
H      5.2049      3.4512     11.6181
C      6.5731      3.7737     10.4314
H      8.5008      2.4677      9.9176
9

H      8.1652      3.7535      9.0034
C      7.6692      2.9233      9.5142
O      5.3262      3.0776     10.8689
O      7.3268      4.0576     11.6519
H      7.7417      2.3997      8.4778
H      7.0157      3.0388     11.6412
H      5.1202      3.5953     11.6678
C      6.5271      3.6778     10.3569
H      8.1124      2.3415     10.0365
9

H      8.4272      3.7543      9.1965
C      7.6431      2.9747      9.4739
O      5.4736      3.0903     10.7829
O      7.3331      3.9366     11.4764
H      7.5918      2.4275      8.4527
H      6.8345      3.1616     12.0415
H      5.1482      3.4666     11.7088
C      6.5694      3.6089     10.3712
H      8.1760      2.2573     10.0831
9

H      8.5690      3.4797      9.4864
C      7.6509      2.8769      9.4858
O      5.4473      3.1655     10.7583
O      7.3547      4.0069     11.4700
H      7.9608      2.2839      8.5403
H      7.1345      3.3030     12.0884
H      5.2147      3.0514     11.8905
C      6.6575      3.5403     10.3021
H      7.8018      1.9751      9.9620
9

H      8.7313      3.0097      9.9769
C      7.6306      2.8146      9.6605
O      5.4287      3.0797     10.8462
O      7.4836      4.0966     11.5194
H      7.5315      2.8554      8.4393
H      7.3963      3.3519     12.1353
H      5.9042      3.0158     11.6948
C      6.5554      3.6881     10.2609
H      7.6689      1.6340     10.0515
9

H      8.6558      3.1256      9.8980
C      7.6148      2.9822      9.4977
O      5.5281      2.9880     10.8996
O      7.3883      4.2062     11.6175
H      7.4438      2.9108      8.5349
H      8.1403      3.5308     11.6463
H      5.7912      2.8080     11.8915
C      6.5878      3.6380     10.2879
H      7.4314      1.9239     10.1581
9

H      8.6776      3.4941      9.3530
C      7.6622      3.0190      9.3728
O      5.5623      3.0020     10.8498
O      7.1736      4.2503     11.6328
H      7.3515      3.4110      8.4412
H      8.0766      4.1493     11.6181
H      5.1751      2.7473     11.6763
C      6.6237      3.7809     10.3804
H      7.4523      1.9999      9.8369
9

H      8.9325      3.3258      9.5390
C      7.6273      3.0403      9.4602
O      5.4367      3.0241     10.6898
O      7.0474      4.3336     11.6122
H      7.2337      3.5606      8.6122
H      8.0015      3.9977     11.9297
H      5.4378      3.1403     11.6761
C      6.5545      3.9261     10.4489
H      7.7584      1.7786      9.1338
9

H      8.8717      3.0340      9.9801
C      7.7180      3.1101      9.4540
O      5.3231      3.1065     10.7734
O      7.0898      4.4040     11.7029
H      7.8376      3.7560      8.7937
H      7.9352      4.0457     11.8116
H      5.0752      3.1369     11.7161
C      6.5118      3.7216     10.3138
H      7.2796      2.1281      8.8352
9

H      8.2808      3.0351      8.4164
C      7.8714      3.5686      9.3135
O      5.8330      2.9108     10.5095
H      8.0491      2.8701     11.9303
O      7.6555      3.7563     11.6765
H      8.6890      4.4774      9.5457
C      7.2021      3.3758     10.5701
H      6.9198      3.7478      8.6522
H      5.7514      1.9648      9.9152
9

H      8.6876      2.7428      8.9342
C      7.9247      3.5012      9.2758
O      5.8178      2.9850     10.4691
H      8.1652      3.1030     12.2314
O      7.5790      3.6817     11.7516
H      8.5454      4.5135      9.8879
C      6.9459      3.3859     10.5255
H      7.5026      3.7606      8.3928
H      5.5774      2.2890      9.8739
9

H      8.6945      2.3305      9.2253
C      7.8204      3.2223      9.2479
O      5.9344      2.7233     10.4359
H      7.3367      3.0219     12.2084
O      7.1939      3.9152     11.7905
H      8.2947      4.1194      9.1233
C      6.7695      3.6723     10.1490
H      7.4097      3.0791      8.3815
H      5.7080      2.1623      9.7560
9

H      8.6262      2.3312      9.5200
C      7.8274      3.2471      9.3005
O      5.7926      2.6940     10.4908
H      7.4925      3.0474     12.4403
O      7.1812      3.8377     11.7956
H      8.4021      4.3272      9.3071
C      6.8029      3.6771     10.2841
H      7.4057      3.2584      8.1928
H      5.4702      2.0010      9.7354
9

H      8.3050      2.9124     10.4933
C      7.9213      3.5012      9.4941
O      5.5340      2.9153     10.1266
O      6.9711      4.0006     11.6543
H      8.0363      4.6692      9.3210
H      4.7613      2.9859     10.7540
C      6.7223      3.5105     10.2431
H      7.3548      2.9259      8.6840
H      7.8913      4.6847     11.6227
9

H      8.5230      3.1221     10.3979
C      7.9276      3.5221      9.5005
O      5.4760      2.9939     10.1697
O      6.9023      4.0138     11.6013
H      8.1460      4.4618      9.0757
H      4.6169      3.4216     10.0603
C      6.5714      3.6222     10.3345
H      7.7124      2.8131      8.7300
H      7.7499      4.6351     11.4605
9

H      8.6007      3.1020     10.3669
C      7.9357      3.5322      9.5396
O      5.4438      3.0772     10.0337
O      6.9860      4.0530     11.5320
H      8.5423      4.4503      9.0444
H      4.4293      3.5558      9.5373
C      6.5433      3.6400     10.3873
H      7.6882      2.4795      9.0157
H      7.2992      5.0301     11.4716
9

H      8.4977      2.9693     10.3811
C      7.8376      3.5442      9.5900
O      5.4574      3.1445     10.0754
O      6.9111      3.9758     11.5268
H      8.2796      4.4643      9.2741
H      4.5776      3.4949      9.8844
C      6.6964      3.7623     10.2373
H      7.8645      3.1178      8.5557
H      7.0321      4.8775     11.6521
