6

O     11.5895      3.0316      1.4580
C     12.8314      3.3693      1.5272
C     13.5824      2.1287      1.0550
H     12.9331      1.9505      0.2151
H     12.8414      3.7406      2.6486
H     14.6845      2.1583      0.7593
6

O     11.4562      2.8291      1.5013
C     12.7332      3.1493      1.4451
C     13.7155      2.2025      1.1196
H     13.1790      1.9538      0.2206
H     12.8265      3.9460      2.2254
H     14.4625      2.2914      0.3106
6

O     11.4128      2.5168      1.5569
C     12.5319      2.9658      1.4789
C     13.7476      2.3001      0.9796
H     13.4498      1.1473      0.8259
H     12.8702      4.0267      1.2663
H     13.8390      2.9178      0.0454
6

O     11.3902      2.4221      1.6413
C     12.4993      2.9277      1.3950
C     13.6610      2.2854      0.9223
H     13.8288      1.3361      1.3283
H     12.9911      3.9906      1.2598
H     13.8584      2.6909      0.0162
6

H      8.9460      3.7383      9.3963
C      8.0786      3.1081      9.0754
O      7.7944      3.5280     11.4258
H      7.2693      3.5719      8.3412
C      7.2622      3.5193     10.3271
H      8.1783      2.1831      8.7766
6

H      8.8276      3.8530      8.8311
C      8.0555      3.2159      9.1111
O      7.7001      3.5082     11.4860
H      7.3299      3.4493      8.3113
C      7.2276      3.5256     10.4658
H      8.3281      2.3448      8.9579
6

H      8.8653      3.5075      8.4787
C      7.9346      3.2925      9.1106
O      7.6232      3.4893     11.5351
H      6.9513      3.2266      8.3993
C      7.3661      3.4094     10.3466
H      7.8920      1.9838      9.0107
6

H      8.8566      4.1047      9.5025
C      8.0339      3.3397      8.9639
O      7.6119      3.5811     11.5539
H      7.6637      3.9418      7.9247
C      7.2236      3.5610     10.4168
H      8.7137      2.4142      8.5330
6

H      9.0669      4.0708      9.3032
C      8.1794      3.2875      9.0815
O      7.5938      3.6376     11.4697
H      7.4936      3.8492      8.5182
C      7.1672      3.5599     10.2974
H      8.2721      2.6440      8.2896
6

H      9.2386      3.3216      9.1638
C      8.1907      3.1657      9.1257
O      7.6070      3.6995     11.5050
H      7.5944      4.0955      8.9860
C      7.2129      3.4348     10.4023
H      7.8266      2.3578      8.5180
6

H      9.1353      3.2705      9.6706
C      8.1372      3.1481      9.1485
O      7.5586      3.6989     11.5143
H      7.6719      4.2742      9.0898
C      7.2837      3.4311     10.5186
H      8.4703      2.4881      8.2014
6

O     11.1746      2.1944      2.5687
C     12.3801      2.6345      2.1423
C     13.4199      2.1830      1.2246
H     13.6456      1.1381      1.1417
H     12.4122      3.5712      1.5897
H     13.5585      2.3575      0.0292
6

O     11.2958      2.2174      2.6799
C     12.2791      2.7844      2.2257
C     13.3827      2.1777      1.2257
H     13.4853      1.0396      1.2017
H     11.9112      3.7918      1.5955
H     13.8305      2.5352      0.1243
6

O     11.2969      2.1900      2.6272
C     12.2639      2.8591      2.1970
C     13.5819      2.1907      1.2694
H     13.3254      1.2952      0.8536
H     12.0041      3.5427      1.5034
H     13.3616      2.5844      0.2633
6

O     11.2750      1.9978      2.3808
C     12.1864      2.8422      2.0511
C     13.6224      2.2542      1.1515
H     13.9107      1.2410      1.5132
H     11.9573      3.8549      2.2316
H     13.0393      2.2664      0.1874
6

O     11.2156      2.0665      2.2736
C     12.2153      2.7663      2.0730
C     13.7571      2.1935      1.2925
H     13.7653      1.5795      2.3797
H     12.2210      3.8299      2.1656
H     13.8446      1.6008      0.2615
6

O     11.4331      2.0912      2.3494
C     12.3034      2.8208      2.0512
C     13.7900      2.1835      1.4269
H     14.0552      1.5073      2.0848
H     12.1545      3.9283      2.1524
H     13.7543      1.8486      0.3482
6

O     11.4624      1.8947      2.1041
C     11.9424      2.9519      1.6232
C     13.0975      2.7866      0.5980
H     13.9325      2.1518      0.8063
H     11.8622      4.2023      1.7520
H     13.0751      3.1909     -0.4921
6

O     11.4888      2.0047      2.1374
C     12.0469      2.9936      1.5222
C     13.0169      2.8861      0.5480
H     13.8121      2.0401      0.5008
H     11.7201      4.0330      1.5071
H     13.0834      3.3633     -0.5625
6

O     11.4335      2.1483      2.1858
C     12.0921      2.9589      1.5042
C     13.1535      2.7280      0.4801
H     13.8799      1.8034      0.4456
H     11.9901      4.2714      1.5795
H     13.2264      3.8108     -0.1537
6

O     11.4243      1.9904      2.2195
C     12.0931      2.9803      1.4078
C     13.0373      2.8700      0.5043
H     13.9296      2.4368     -0.0474
H     11.7813      4.1722      1.4215
H     13.3115      3.8511      0.1962
6

O     11.4686      1.9719      2.2162
C     12.0630      2.9027      1.5127
C     13.0164      2.9864      0.5453
H     13.8487      2.3986      0.3789
H     11.5732      3.9733      1.3737
H     12.7060      4.1360      0.2684
6

O     11.6694      1.8534      2.1297
C     11.9747      3.0672      1.3691
C     13.0548      3.0590      0.6655
H     13.7515      2.3017      0.5329
H     11.3522      3.9739      1.5599
H     12.9315      4.0967      0.0548
6

O     11.6255      1.8905      2.2458
C     12.0391      3.0510      1.4739
C     13.1318      3.0331      0.6462
H     14.0255      2.2999      0.5941
H     11.3431      3.8348      1.7104
H     13.1130      3.8819      0.1082
6

O     11.6223      1.9331      2.2257
C     11.8394      2.9845      1.5437
C     13.1063      2.9947      0.7533
H     14.2122      2.4269      0.9964
H     11.4614      4.1077      1.3218
H     12.9575      3.8391      0.2309
6

O     11.5759      1.9610      2.2988
C     11.9708      2.9138      1.6250
C     13.0871      3.0226      0.8057
H     13.6296      3.2982      1.7570
H     10.8767      3.5964      1.5937
H     13.0149      3.9690      0.4933
6

O     11.5852      1.8258      2.2528
C     11.9248      2.8829      1.6034
C     13.1348      3.0205      0.7032
H     13.9283      3.2963      1.3034
H     11.0008      3.6071      1.2343
H     12.7708      3.9739      0.1407
6

O     11.5897      1.8826      2.3330
C     11.9858      2.7927      1.6546
C     13.0969      3.1145      0.7187
H     14.1488      3.0595      0.9489
H     11.1364      3.5487      1.0391
H     12.8828      4.1710      0.5526
6

O     11.5395      1.8073      2.3180
C     12.0121      2.7867      1.6153
C     13.0827      3.0022      0.6381
H     14.1999      2.8916      1.1892
H     11.1824      3.4931      1.3907
H     12.9667      4.1083      0.5912
6

O     11.5954      1.7359      2.1128
C     11.8798      2.8361      1.5927
C     13.1287      3.0441      0.8106
H     13.8999      2.6498      1.2851
H     11.0324      3.6001      1.5222
H     13.4729      4.1182      0.3976
6

O     11.6088      1.7595      2.0453
C     11.8981      2.9369      1.5401
C     13.1148      2.9959      0.9304
H     13.8864      2.5501      1.5588
H     11.1971      3.7267      1.5008
H     13.3319      4.0801      0.4873
6

O     11.5415      1.8566      2.0464
C     11.8689      2.8919      1.6147
C     13.2042      2.9605      0.9716
H     14.0564      3.0567      1.6566
H     11.5406      3.9678      1.7502
H     13.0443      3.9386      0.5473
6

O     11.4733      1.8069      2.1560
C     12.0397      2.7967      1.6439
C     13.2327      2.8773      0.8350
H     14.0915      2.8187      1.7236
H     11.8076      3.8625      1.4838
H     13.1025      4.0270      0.4324
6

O     11.4088      1.7788      2.2147
C     11.9833      2.7230      1.5670
C     13.1607      2.8589      0.8683
H     13.7042      2.6698      1.6999
H     11.1988      3.6210      1.5929
H     13.3536      3.8479      0.2162
6

O     11.2236      1.8544      2.2859
C     11.6327      2.4498      1.3069
C     13.0131      2.4019      0.9112
H     13.5526      2.8268      1.7355
H     10.8782      3.3454      0.9411
H     12.7445      3.3710      0.5800
6

O     11.2098      1.8113      2.2964
C     11.7905      2.3980      1.4287
C     13.1993      2.2590      1.1085
H     13.6643      2.9869      1.6585
H     11.2973      3.4981      0.9531
H     13.2999      2.6771      0.0899
6

O     11.1300      1.8124      2.2253
C     11.9025      2.5505      1.5482
C     13.3290      2.2661      1.2058
H     13.6408      3.1982      1.6709
H     11.8236      3.4737      1.0889
H     13.6416      2.1642      0.0314
6

O     11.2057      1.9048      2.2746
C     11.9537      2.5089      1.5166
C     13.3247      2.3782      1.2243
H     13.9739      2.9339      1.8459
H     11.4135      3.5784      1.0560
H     13.3433      2.8786      0.0701
6

O     11.3158      1.9324      2.4238
C     11.9746      2.5898      1.5437
C     13.3209      2.5666      1.2161
H     13.9295      2.0769      1.8940
H     11.4795      3.6242      1.1204
H     13.5194      3.2919      0.4462
6

O     11.4001      1.8955      2.4859
C     12.0090      2.4751      1.5457
C     13.5343      2.4820      1.5180
H     14.2854      2.4333      2.2643
H     11.6893      3.4904      1.0303
H     13.9567      2.6618      0.3225
6

O     11.2408      2.0622      2.2595
C     12.3161      2.6575      1.9423
C     13.6707      2.8234      1.5256
H     14.5144      3.4180      2.1442
H     12.0365      3.7603      1.5574
H     14.2931      1.9608      1.1224
6

O     11.4001      2.1084      2.3731
C     12.3426      2.7498      1.8064
C     13.6853      2.6807      1.7008
H     14.3990      3.5037      2.0165
H     12.0227      3.6076      1.1557
H     14.2273      1.8689      0.9752
6

O     11.4513      1.9863      2.3292
C     12.2681      2.6031      1.7446
C     13.7554      2.4856      1.7786
H     13.9670      3.5784      1.9501
H     11.6944      3.5766      1.2048
H     13.9468      2.6484      0.6014
6

O     11.4554      1.8549      2.2491
C     12.1490      2.4996      1.7132
C     13.7280      2.3936      1.7380
H     13.4456      3.5263      2.3263
H     11.8277      3.5552      1.2742
H     13.6587      2.9360      0.6117
6

O     11.3176      1.6851      2.2743
C     12.2235      2.6217      1.6009
C     13.4845      2.5605      1.6743
H     13.9226      2.8735      2.7558
H     11.6965      3.3749      1.1077
H     14.2482      2.8429      0.7529
6

O     11.3631      1.7404      2.1644
C     12.2247      2.5931      1.5857
C     13.5895      2.7270      1.7886
H     14.2535      2.2897      2.4145
H     11.9537      3.5232      0.9570
H     14.0353      2.8064      0.7814
6

O     11.4764      1.8966      2.0578
C     12.4024      2.5955      1.6752
C     13.7097      2.8121      1.9385
H     13.7568      1.6577      2.2530
H     11.8380      3.5156      0.9804
H     13.5785      2.5037      0.8767
6

O     11.4696      1.9604      2.0243
C     12.3400      2.7077      1.6968
C     13.7994      2.6283      1.9084
H     13.4710      1.6306      2.2144
H     11.9693      3.4369      0.9555
H     14.2464      2.4153      0.8072
6

O     11.3252      2.0541      1.9926
C     12.3287      2.6458      1.5375
C     13.7308      2.4873      1.6776
H     13.9318      1.5612      2.5051
H     11.8857      3.8412      1.3114
H     14.0427      2.2189      0.5419
6

O     11.6146      1.3679      2.1952
C     12.2760      2.4186      1.3769
C     13.6380      2.2192      1.7380
H     13.6413      1.1148      1.7732
H     11.9155      3.4042      1.6284
H     14.2426      3.0974      1.8490
6

O     11.5033      1.3287      2.0881
C     12.4295      2.2620      1.6066
C     13.6891      2.1902      1.8264
H     13.8104      1.1081      2.0803
H     11.8253      3.1098      1.4158
H     14.5086      2.7767      1.5292
6

O     11.4235      1.2790      1.9266
C     12.2332      2.1882      1.8050
C     13.7621      2.1020      1.8402
H     14.1868      1.3029      2.2179
H     12.1065      2.9360      1.1335
H     14.3329      2.5344      1.1229
6

O     11.4552      1.2157      1.8784
C     12.1119      2.1871      1.7409
C     13.6034      2.0996      1.7306
H     13.9309      1.0279      1.9375
H     11.9831      2.9707      1.0497
H     14.3273      2.7010      1.1536
6

O     11.4101      1.2333      1.9608
C     12.1472      2.2116      1.7854
C     13.5246      2.0740      1.6787
H     13.6920      1.1501      2.1107
H     11.7554      3.0315      1.0816
H     14.1415      2.6440      1.0128
6

O     11.3277      1.2493      1.9692
C     12.1341      2.2215      1.7448
C     13.6432      2.2325      1.7177
H     13.8020      1.3063      1.8836
H     11.9173      3.2124      1.3720
H     14.2255      2.7299      0.9918
6

O     11.3875      1.2188      2.0761
C     12.2045      2.2228      1.8424
C     13.6185      2.2609      1.6871
H     13.9791      1.1128      1.7709
H     11.6574      3.1338      1.2876
H     13.9014      3.0143      1.0116
6

O     11.5320      1.2807      2.2675
C     12.2048      2.0942      1.6924
C     13.5111      2.1875      1.7536
H     14.2251      1.6383      2.1446
H     11.7384      2.9165      1.4808
H     14.0679      2.5565      0.7220
6

O     11.3688      1.2705      2.3238
C     12.2237      2.2456      1.6787
C     13.5309      2.2169      1.6345
H     14.1304      1.4053      1.9524
H     11.7919      3.2472      1.4627
H     14.2232      2.7480      0.8863
6

O     11.5016      1.3287      2.3683
C     12.2377      2.2893      1.8515
C     13.5978      2.3342      1.5452
H     14.3962      1.4144      2.0675
H     11.4258      3.2051      1.3608
H     14.2548      3.0405      1.1815
6

O     11.3581      1.2650      2.3339
C     12.1486      2.3520      1.9037
C     13.4375      2.2872      1.4891
H     13.7820      1.2112      2.1179
H     11.4246      3.0819      1.4780
H     14.3027      2.7950      1.6868
6

O     11.3617      1.3181      2.3356
C     12.2468      2.2774      1.9048
C     13.4456      2.2223      1.4383
H     14.0656      1.3831      1.7495
H     11.6684      3.0160      1.5697
H     14.1204      2.9937      1.7305
6

O     11.4338      1.3106      1.9079
C     12.2686      2.2994      1.7883
C     13.4576      2.1519      1.2215
H     14.0348      1.1965      0.8509
H     11.8533      3.0962      1.1725
H     13.9778      3.0355      1.5998
6

O     11.3948      1.3894      2.0352
C     12.2573      2.1562      1.7169
C     13.5150      2.1751      1.2231
H     14.0718      1.4479      1.0456
H     12.0811      3.1423      1.1999
H     14.0613      3.0667      1.5458
6

O     11.3156      1.3733      2.4052
C     12.2977      2.1862      1.5889
C     13.6692      2.0251      1.1930
H     14.2107      1.4643      1.7930
H     11.5503      2.8483      1.3712
H     13.9841      3.0579      0.7988
6

O     11.5135      1.2569      2.3951
C     12.1882      2.1827      1.4609
C     13.6291      2.1525      1.4141
H     14.4911      1.8174      1.7792
H     11.5998      2.9870      1.5501
H     14.0536      2.9441      0.7076
6

O     11.7000      1.0652      2.2599
C     12.2622      1.9894      1.5810
C     13.5762      2.3009      1.6168
H     14.4080      1.8026      1.7280
H     11.9112      2.8274      1.0282
H     13.5628      2.8731      0.8240
6

O     11.7826      0.7724      2.1638
C     12.1887      1.8670      1.7149
C     13.5726      2.3948      1.6309
H     14.0343      1.4341      1.4771
H     11.4147      2.0237      0.8226
H     13.5971      3.1319      0.8272
6

O     11.5669      0.9987      2.2479
C     12.0866      2.1705      1.6800
C     13.5562      2.5437      1.5906
H     13.5662      3.2067      2.6011
H     11.6635      2.7600      0.8023
H     13.9316      3.2838      0.8446
6

O     11.5165      1.1261      2.1941
C     12.1055      2.0172      1.5482
C     13.4885      2.5985      1.7654
H     14.0448      1.6278      1.4018
H     11.1004      2.3929      0.9267
H     13.8847      3.1605      0.7454
6

O     11.4677      1.1370      2.1132
C     12.0617      1.9351      1.3649
C     13.2116      2.3996      1.7741
H     13.8398      1.2672      1.7246
H     11.7254      2.4059      0.3661
H     13.2765      3.1106      0.7380
6

O     11.3099      1.0966      2.0741
C     12.0910      1.9290      1.4002
C     13.3076      2.4578      1.7053
H     14.0233      1.8024      1.9886
H     11.3172      2.6031      0.7907
H     13.4394      2.4999      0.4070
6

O     11.3182      1.0816      2.0420
C     11.9929      1.8468      1.4806
C     13.2771      2.4308      1.6702
H     14.0934      1.7350      1.9170
H     11.3925      2.4385      0.5533
H     13.4028      2.5159      0.6515
6

O     11.2897      1.0861      2.1988
C     11.9703      1.9643      1.4771
C     13.3104      2.3383      1.6176
H     13.9621      1.4025      1.8732
H     11.6751      2.4423      0.5929
H     13.9080      3.0598      0.8087
6

O     11.3661      1.2407      2.1111
C     12.0529      1.7988      1.4009
C     13.2487      2.2378      1.5926
H     13.7323      1.4960      2.2434
H     11.7434      2.5299      0.4253
H     13.7211      2.4953      0.7447
6

O     11.1368      1.4428      2.1090
C     12.2676      2.0609      1.4942
C     13.5513      2.1242      1.6160
H     13.9186      1.3363      2.2733
H     11.6606      2.7966      0.7669
H     14.0932      2.7719      0.9333
6

O     11.1755      1.5072      1.8778
C     12.1590      2.3977      1.7810
C     13.4451      2.0752      1.3467
H     14.0774      1.2427      1.4458
H     12.1959      3.5569      2.0750
H     14.1818      2.9777      1.4943
6

O     11.2717      1.5023      1.8362
C     12.1776      2.4546      1.7360
C     13.5066      2.1523      1.2483
H     13.9885      1.3712      1.7970
H     11.8202      3.4999      2.1918
H     14.2455      2.8119      1.4688
6

O     11.2234      1.5084      1.9463
C     12.2131      2.5474      1.7640
C     13.5430      2.3347      1.2945
H     14.0361      1.4618      1.6083
H     11.7690      3.4992      1.7281
H     14.0812      3.0961      1.8307
6

O     11.1082      1.5706      1.9531
C     12.2549      2.6346      1.7073
C     13.5319      2.3523      1.3590
H     13.4899      1.2863      1.5745
H     11.4612      3.2760      1.8337
H     13.9913      3.2609      1.6527
6

O     10.9600      1.5447      1.8753
C     12.0323      2.5709      1.6275
C     13.3779      2.2728      1.4604
H     13.8619      1.2190      1.5940
H     11.6393      3.5799      1.6511
H     14.1692      2.9503      1.4319
6

O     10.9049      1.5279      2.0579
C     12.0055      2.5522      1.7133
C     13.2653      2.2618      1.3309
H     14.0031      1.4737      1.3394
H     11.6790      3.6780      1.7148
H     13.7627      3.3019      1.2650
6

O     10.9412      1.5115      1.8641
C     11.9201      2.4600      1.7453
C     13.2589      2.1052      1.3371
H     13.8663      1.2034      1.6137
H     11.5827      3.0612      1.0981
H     13.5688      3.2754      0.9989
6

O     10.8683      1.5591      1.8505
C     11.9976      2.4333      1.8483
C     13.3446      2.1993      1.4382
H     13.9178      1.1577      1.4828
H     11.3710      3.4373      1.3952
H     14.2076      3.0878      1.3236
6

O     10.9412      1.5298      2.0012
C     11.9080      2.3314      1.7299
C     13.1284      2.2115      1.3534
H     13.6412      1.5525      2.1532
H     11.7113      3.3943      1.7962
H     13.8083      3.2640      1.1243
6

O     10.9439      1.5431      2.0445
C     11.7004      2.4189      1.5287
C     13.1726      2.0997      1.2329
H     13.7820      1.4424      1.9405
H     11.3948      3.4495      1.5121
H     13.4986      3.2706      1.6367
6

O     10.8988      1.4658      2.0514
C     11.6086      2.3020      1.5664
C     13.0402      2.0930      1.1710
H     13.4678      1.4008      1.9260
H     11.2111      3.4286      1.5834
H     13.7052      2.8177      1.4231
6

O     11.0403      1.2175      2.2235
C     11.7598      2.1087      1.6715
C     13.1429      2.0860      1.1729
H     13.8760      1.0708      1.4997
H     11.4311      3.1588      2.1195
H     13.4492      3.2411      1.2841
6

O     10.9652      1.2020      2.1644
C     11.8330      2.0682      1.6183
C     13.1353      2.1556      1.2020
H     13.9366      1.3419      0.9938
H     11.3048      3.0853      2.3429
H     13.4482      3.2978      1.3000
6

O     11.0078      1.2563      2.2243
C     11.8608      2.0946      1.6944
C     13.1768      2.1705      1.2300
H     13.8683      1.6211      0.6338
H     11.3337      2.9156      1.9697
H     13.3913      3.0452      1.7372
6

O     10.8827      1.2671      2.2193
C     11.9656      2.1751      1.7993
C     13.2834      2.2053      1.2759
H     13.8059      1.6559      0.7085
H     11.6051      3.3250      2.0168
H     13.7146      3.2589      1.5793
6

O     11.0158      1.2546      2.1917
C     12.0092      2.1916      1.7954
C     13.2193      2.2542      1.1604
H     14.0761      1.7118      0.4082
H     11.8626      3.5061      2.0031
H     13.7035      3.2606      1.3548
6

O     11.1428      1.1712      2.2536
C     12.2354      2.2899      1.9931
C     13.1925      2.2487      0.9160
H     14.0296      1.5261      1.0577
H     11.3578      2.9641      1.9028
H     13.3939      3.3103      1.1541
6

O     11.2862      1.1113      2.3368
C     12.2606      2.1532      1.9674
C     13.2831      2.2837      1.0412
H     13.9575      1.5801      0.6606
H     11.5229      2.8252      1.5774
H     13.5026      3.3103      0.5796
6

O     11.2132      1.1619      2.2613
C     12.2973      2.1659      1.8889
C     13.3438      2.2652      1.0751
H     14.2805      1.5988      1.0626
H     11.6577      2.8816      1.4565
H     13.4832      3.2585      0.6298
6

O     11.3384      1.1948      2.0797
C     12.1172      2.1862      1.5532
C     13.4659      2.2618      0.9625
H     14.1592      1.7571      1.5133
H     11.8261      3.1761      2.0795
H     13.1049      3.0831      0.2489
6

O     11.5070      1.1097      2.0407
C     12.1561      2.1367      1.6757
C     13.2753      2.0563      0.9871
H     14.3543      2.1371      1.1462
H     11.2939      3.1589      1.4992
H     13.2420      3.0419      0.4697
