11

C      9.7956      0.6773     10.9350
C      9.3694     -0.2911     12.0292
H     10.1019     -0.9807     12.1400
O      9.4853      1.9479     10.6823
H      8.1743     -1.8401     12.6478
H      8.0165     -1.2318     10.8293
H     10.9743      0.6118      9.2812
N     11.0283      0.3272     10.3024
C      8.1725     -1.1304     11.7954
H     11.8862      0.1317     10.8491
H      7.0555     -0.4030     12.2209
11

C      9.9014      0.7992     10.8507
C      9.3169     -0.2573     12.0650
H     10.1650     -1.1413     12.2010
O      9.5512      1.9628     10.6524
H      8.2441     -1.9593     12.4515
H      8.2613     -1.4051     10.7738
H     11.0855      0.4525      9.2272
N     10.9176      0.3250     10.1970
C      8.1633     -1.0804     11.8243
H     11.6029      0.0242     10.8791
H      7.2692     -0.4296     11.7191
11

C     10.0560      0.9348     11.2162
C      9.4484     -0.0885     12.2410
H     10.1342     -0.7906     12.5998
O      9.3308      1.8974     10.7146
H      7.6852     -1.4728     12.6939
H      8.2982     -1.6425     10.8666
H     10.8765      0.9263      9.5190
N     11.1504      0.3262     10.2741
C      8.3572     -1.1114     11.8160
H     12.0503      0.6939     10.5412
H      7.6944     -0.3934     11.7854
11

C      9.9713     13.1514     11.0955
C      9.6637     12.1673     12.2875
H     10.6997     11.8408     12.7259
O      9.0381     13.7989     10.7119
H      9.4212     10.4235     11.0901
H      7.8913     11.3770     11.0450
H     11.3782     13.8908      9.4001
N     11.2845     13.2051     10.0427
C      8.7561     11.1020     11.6901
H     12.1362     13.1365     10.5318
H      7.9965     10.8167     12.5329
11

C      9.9524     13.1322     10.9602
C      9.5855     12.2425     12.2119
H     10.6155     11.6083     12.6027
O      8.8776     13.8317     10.5643
H      9.5769     10.6307     11.0533
H      8.1624     11.4647     10.5312
H     11.0477     13.2473      9.3207
N     11.2643     13.2021     10.3621
C      8.6760     11.2667     11.4665
H     11.8795     12.4117     10.6280
H      8.0174     10.5924     12.0593
11

C      9.8024     13.1081     11.0398
C      9.5506     12.3673     12.1582
H     10.3713     11.4942     12.4898
O      8.9612     13.8201     10.6847
H      9.2232     10.4749     11.0054
H      7.7896     11.7426     10.8772
H     10.9598     13.1826      9.3083
N     11.2020     13.1928     10.3205
C      8.5382     11.2786     11.5504
H     11.9533     12.5087     10.4991
H      8.0834     10.8171     12.4366
