15

C      9.9853     13.4023     10.7774
C      9.5409     12.3526     12.0762
H     10.7427     12.0116     12.2931
O      8.8439     11.9875     14.3299
O      9.4271     14.4934     10.8096
C      9.3797     12.9480     13.4640
H      7.5611     12.5842     11.8840
H      7.7137     10.9100     11.7193
H      8.4961     13.7511     13.3063
H     10.3399     13.2838     13.7885
H     11.3446     13.4938      8.9646
N     11.3235     13.1887     10.0705
C      8.2728     11.7287     11.4350
H     10.9981     12.0474     10.0241
H      8.2190     12.2127     10.5449
15

C      9.8921      0.7367     10.9266
C      9.4618     -0.2441     12.1694
H     10.4540     -0.6927     12.3278
O      9.1600     -0.7344     14.5481
O      9.3789      1.8074     10.9204
C      8.9622      0.2448     13.5742
H      8.5438     -2.2103     12.3573
H      8.3914     -1.6305     10.8095
H      7.8376      0.8472     13.6569
H      9.8196      0.9678     13.7503
H     11.5872      1.0225      9.5845
N     11.1610      0.3595     10.4384
C      8.3765     -1.2413     11.9171
H     11.8561      0.4103     11.1096
H      7.6003     -0.6622     12.2019
15

C      9.8973     13.2407     10.7986
C      9.8093     12.1828     11.7335
H     10.2277     11.2820     11.7146
O      8.2663     12.7655     13.8422
O      9.1400     14.3773     10.7836
C      9.6111     13.0288     13.0086
H      8.3634     11.1527     10.7307
H      7.9599     12.6270     11.6685
H      9.7098     14.0442     13.4647
H     10.3934     12.7399     13.9089
H     10.8887     13.7096      9.1861
N     10.6989     12.9154      9.7042
C      8.3848     11.7033     11.6221
H     11.7088     12.3504      9.8765
H      8.2803     11.3296     12.6040
15

C      9.7846      0.4756     10.6996
C      9.7312     -0.6832     11.8021
H     10.7398     -1.3434     11.4706
O      8.2934      0.0528     13.9432
O      9.1705      1.4451     10.8117
C      9.5935     -0.1453     13.2370
H      8.4944     -1.8599     10.5408
H      7.8257     -0.5585     11.1628
H      9.4738      0.8977     12.5264
H     10.4380     -0.4215     13.6701
H     10.7140      0.7785      9.0300
N     10.6221      0.1256      9.7069
C      8.4821     -1.3551     11.4705
H     11.4920      0.2838     10.5278
H      7.7478     -1.5934     11.9993
15

C      9.7281      0.3087     10.5996
C      9.8625     -0.6850     11.8269
H     10.8160     -1.4776     11.9786
O      8.3003      0.0869     14.0722
O      9.0602      1.4334     10.8658
C      9.6235      0.0155     13.3148
H      8.5738     -2.1196     10.6988
H      7.7113     -0.4227     11.4768
H      9.4954      1.1533     12.8481
H     10.3026     -0.2769     13.9867
H     10.5887      0.4514      8.9014
N     10.7008      0.1941      9.8264
C      8.3777     -1.2730     11.3918
H     11.6472      0.1299     10.4449
H      8.0940     -2.0601     12.3384
15

C      9.7447      0.4200     11.0353
C      9.6375     -0.7278     11.9606
H     10.4939     -1.3953     11.5801
O      8.3461      0.0853     14.0996
O      9.0305      1.3211     10.7923
C      9.3369      0.1717     13.2586
H      8.6794     -1.6206     10.5514
H      7.6594     -0.7757     11.5659
H      9.7862      1.3659     13.0191
H     10.3871      0.3544     13.6977
H     11.0054      0.1077      8.9219
N     10.7757      0.0785      9.9007
C      8.4484     -1.3102     11.4464
H     11.6798     -0.4127     10.3172
H      8.1290     -2.1490     12.2697
15

C      9.8972     13.1100     11.0849
C      9.7241     12.1398     12.3062
H     10.6959     11.7509     12.9045
O      8.2686     12.8906     14.2533
O      9.1758     14.2038     10.8700
C      9.4633     13.2149     13.4788
H      8.6725     10.9192     11.1644
H      7.5683     12.2144     11.0917
H      9.4706     14.2161     13.0296
H     10.1579     13.0892     14.2230
H     10.9911     13.5458      9.3823
N     10.7515     12.8015     10.0506
C      8.3260     11.6563     11.7554
H     11.5792     12.3730     10.3910
H      7.5319     11.3783     12.5866
15

C      9.9946      0.5904     10.9040
C      9.3128     -0.4401     11.9481
H     10.0695     -1.2236     12.0264
O      8.1842     -0.1633     14.1630
O      9.5467      1.6763     10.9985
C      9.1738      0.2891     13.3828
H      7.3235     -0.9552     12.1137
H      8.2035     -2.1658     11.7456
H      8.9216      1.2942     13.3439
H     10.2531      0.2595     14.0435
H     11.5125     -0.9625      9.9294
N     10.9375     -0.0566     10.0463
C      8.2271     -1.2053     11.5593
H     11.6777      0.4752      9.5844
H      8.1152     -1.2271     10.3549
15

C      9.9643      0.4104     10.8326
C      9.4610     -0.4054     12.0137
H     10.0807     -1.1428     12.5122
O      8.0555     -0.2104     14.1549
O      9.5072      1.5779     10.9696
C      9.1665      0.4421     13.5535
H      7.3206     -1.0085     12.1264
H      8.5670     -2.2308     11.6755
H      8.8971      1.3331     12.9744
H     10.0716      0.4456     13.7335
H     11.5170     -0.5275     10.3893
N     10.9397      0.0470      9.8326
C      8.1577     -1.3305     11.4714
H     11.1955      0.8808      9.2939
H      8.2696     -1.4165     10.4260
15

C      9.9365      0.3458     10.8203
C      9.5487     -0.4542     12.1214
H     10.5682     -0.8438     12.6225
O      8.0561     -0.1451     14.1411
O      9.5457      1.4760     10.8357
C      9.1159      0.5109     13.4033
H      7.1797     -0.7772     11.8812
H      8.4415     -2.3875     11.9563
H      9.4582      1.5955     13.1138
H     10.1169      0.4818     14.0795
H     11.6785      0.0941     10.3819
N     10.8968      0.2021      9.7456
C      8.2766     -1.3463     11.5247
H     10.7343      1.2207      9.4437
H      8.1488     -1.2627     10.4373
15

C     10.1090      0.3656     10.8306
C      9.5509     -0.5044     12.0818
H     10.4017     -1.2226     12.3655
O      8.3727     -0.0483     13.9325
O      9.5035      1.5436     10.7771
C      9.4446      0.3850     13.2720
H      7.8376     -0.4171     11.6877
H      7.7537     -2.2885     11.9425
H      9.3705      1.4683     13.0560
H     10.3554     -0.0589     14.0559
H     11.6837     -0.5076      9.7632
N     10.9373      0.1862      9.6853
C      8.4043     -1.3946     11.6407
H     11.3531      1.0202      9.2332
H      8.5325     -1.6494     10.5822
15

C     10.1770      0.5323     10.6986
C      9.6526     -0.3742     11.7438
H     10.1806     -1.0804     12.3671
O      8.3467      0.4107     13.8225
O      9.4202      1.6843     10.5728
C      9.5715      0.4515     13.0363
H      7.5732     -0.3824     11.2099
H      7.9102     -1.7767     12.1784
H      9.6259      1.3460     12.8712
H     10.7460      0.1337     13.5941
H     11.1402     -1.1181      9.5085
N     10.7551     -0.1216      9.6821
C      8.3259     -1.1464     11.3163
H     10.6185      0.7088      9.1307
H      8.4620     -1.3846     10.1442
15

C     10.0906      0.5108     10.7104
C      9.6700     -0.5446     11.7620
H     10.4252     -1.3180     11.9569
O      8.4351      0.4768     13.7640
O      9.4478      1.6223     10.6741
C      9.4979      0.3836     12.9036
H      7.8452     -0.2876     11.4142
H      8.1864     -1.7412     12.1547
H      9.8489      1.4786     12.5398
H     10.4742      0.2417     13.4624
H     11.1620     -1.0461      9.6928
N     10.7190     -0.0188      9.6480
C      8.3590     -1.1914     11.3689
H     10.6016      0.6451      8.6805
H      8.4754     -1.8524     10.5353
15

C     10.0010      0.5372     10.7449
C      9.6812     -0.5278     11.7864
H     10.6135     -1.1206     11.7557
O      8.4496      0.4972     13.6974
O      9.3947      1.5485     10.6061
C      9.5150      0.4253     12.9470
H      7.8507     -0.4111     11.7328
H      8.5135     -2.0826     11.9930
H      9.7078      1.4905     12.7279
H     10.5915      0.4559     13.3815
H     11.0545     -0.9597      9.9379
N     10.7718      0.1223      9.6322
C      8.4634     -1.2722     11.3922
H     10.5308      0.1116      8.5855
H      8.4263     -1.5365     10.4079
15

C      9.9411      0.3555     10.9645
C      9.8109     -0.7501     11.8150
H     10.5230     -1.5076     11.7828
O      8.4645     -0.0098     13.9227
O      9.7630      1.5847     11.2513
C      9.6695     -0.0482     13.1939
H      7.7724     -0.4599     11.5892
H      7.9897     -2.0188     12.5815
H     10.2034      0.9702     13.4105
H     10.2785     -0.6033     13.8580
H     10.5704     -0.2549      9.2005
N     10.9077      0.2038     10.0558
C      8.3482     -1.4370     11.6391
H     11.4796      0.9775      9.7003
H      8.8046     -2.2239     10.7171
15

C      9.9494     13.3567     10.9813
C      9.6594     12.1370     11.8596
H     10.7278     11.7158     11.6974
O      8.3659     12.9714     13.7352
O      9.7192     14.4611     11.2818
C      9.5675     12.8124     13.2381
H      7.6280     12.1504     11.4332
H      8.0845     10.8679     12.3397
H     10.1156     13.7297     13.1189
H     10.3114     12.0366     14.1336
H     10.7669     12.4566      9.2671
N     11.0319     13.0377      9.9845
C      8.5218     11.5245     11.6816
H     11.3668     13.8407      9.2594
H      8.4690     10.9325     10.7398
15

C     10.1054      0.4114     10.9352
C      9.8253     -0.6412     11.8395
H     10.4911     -1.5223     12.0129
O      8.3872      0.1296     13.7915
O      9.8529      1.6751     11.4082
C      9.6413     -0.1893     13.3173
H      7.8907     -0.4714     11.8556
H      8.6960     -2.2581     12.3374
H     10.0659      0.7672     13.1121
H     10.5886     -0.7263     13.9448
H     10.6521     -0.7407      9.2691
N     10.9852      0.1055      9.9524
C      8.4742     -1.4403     11.7140
H     11.2587      0.9882      9.7058
H      8.4102     -2.0869     10.6875
15

C     10.1155      0.5003     11.0389
C      9.8124     -0.6202     11.9282
H     10.7004     -1.5488     11.7164
O      8.3917      0.0805     13.9326
O     10.0906      1.6926     11.5045
C      9.6837     -0.0809     13.4073
H      7.5458     -0.7896     11.7931
H      8.0371     -2.1727     12.6087
H     10.1349      0.9287     13.4079
H     10.3966     -0.7005     13.9306
H     10.9580     -1.2413      9.8599
N     10.7265     -0.0781      9.9507
C      8.4990     -1.3458     11.7083
H     10.7700     -0.0790      8.9620
H      8.4505     -1.9764     10.7152
15

C     10.3430      0.4913     11.0250
C      9.7368     -0.6244     12.0369
H     10.6599     -1.2527     11.9028
O      8.3524      0.1084     13.9562
O     10.1723      1.5917     11.4363
C      9.8326     -0.1202     13.3998
H      7.7395     -0.3634     11.3756
H      8.3326     -2.4386     12.1576
H     10.4667      0.8336     13.6261
H     10.4973     -0.7003     14.1046
H     11.1274     -1.2336     10.1106
N     10.8070     -0.0862      9.9225
C      8.4430     -1.2988     11.6796
H     10.5959      0.6389      9.1231
H      8.3368     -1.7125     10.5028
