4

H     12.7249      1.5464      2.9093
O     12.3262      1.7251      4.0378
H     11.8818      0.9715      4.6923
H     11.8181      2.8056      4.0709
4

H     13.1378      2.0003      3.0224
O     12.3819      1.7416      4.0558
H     12.6205      1.4803      4.9799
H     11.3779      1.8462      4.0798
4

H      5.4699     12.5402      0.1041
H      3.7445     12.2749      0.2446
H      4.3448     11.6653      1.4769
O      4.5300     12.1988      0.6961
4

H      5.0445     11.4499     -0.1728
H      3.8478     11.8967      0.0189
H      4.6135     11.9882      1.4748
O      4.6356     11.9429      0.5364
4

H      5.6850     11.6343     -0.3365
H      3.7067     11.8872      0.0546
H      4.7806     11.4468      1.1094
O      4.7065     11.8095      0.2468
4

H      5.6714     11.6987     -0.3259
H      4.1458     11.1208     -0.4937
H      4.8673     11.6948      1.1202
O      4.6791     11.6826      0.1530
4

H     10.3166      0.3026      3.5549
H      9.8062      0.3436      5.4313
O     10.3008      0.0191      4.5601
H     11.1248     -0.2725      4.9150
4

H      7.3728      4.5128      5.1628
H      5.8013      3.9171      4.9220
O      6.5067      4.7401      5.1293
H      6.4319      4.9103      6.0975
4

H      7.2737      3.6332      1.0434
H      7.4296      4.3314     -0.4992
O      7.7727      3.7267      0.3517
H      8.7374      3.9892      0.4445
4

H      7.6398      3.4533      1.3226
H      7.4892      4.3962     -0.5220
O      7.7532      3.7657      0.3983
H      8.6281      4.3049      0.6654
4

H      7.3823      3.0488      0.6911
H      7.3718      4.3799     -0.3722
O      7.8914      3.7700      0.3508
H      8.7495      4.3688      0.3140
4

H      1.5732     12.4113     10.6981
H     -0.1183     12.4648     10.9661
H      0.8736     11.1331     10.9744
O      0.6821     12.2275     10.4713
4

H      3.6322     11.6500      0.3169
H      5.5279     11.5407     -0.0816
H      4.4200     10.9620      1.0327
O      4.6527     11.7981      0.5192
4

H      1.1992     13.1901     10.7465
H     -0.4336     12.5725     10.5014
H      0.5676     11.4687     10.9970
O      0.7256     12.2377     10.3619
4

H      3.4974     11.5558      0.1236
H      4.7842     11.3815     -0.4336
H      4.3622     11.2538      1.3205
O      4.3798     11.5727      0.5209
4

H      0.9011     13.3967     10.6803
H     -0.2013     12.9094     10.3312
H      0.8658     12.0015     11.5133
O      0.6997     12.3222     10.3467
4

H      3.3776     11.7535      0.5615
H      5.1091     10.8339     -0.0407
H      4.5885     11.3914      1.4412
O      4.3045     11.4715      0.4522
4

H      1.5156     12.7458     10.2227
H     -0.4475     12.4131     10.5895
H      0.9053     11.9295     11.5182
O      0.6153     12.5220     10.6068
4

H      3.4558     11.8056      0.2146
H      4.8458     10.7678      0.0873
H      4.5393     11.5036      1.4379
O      4.3635     11.5063      0.4712
4

H     10.3171     -0.1491      7.7904
H      9.4493      0.9676      6.8756
O     10.4203      0.8624      7.1823
H     10.4884      1.2799      8.1164
4

H     10.6500     -0.5381      7.1837
H      9.9114      1.0008      6.6295
O     10.6088      0.6298      7.2552
H     10.2822      0.9165      8.1444
4

H     10.0212     -0.0868      7.7593
H      9.6565      0.9172      6.7971
O     10.5494      0.6980      7.3365
H     10.0887      1.1996      8.4305
4

H     10.1420     -0.1441      7.8410
H      9.4546      1.5077      6.8667
O     10.2766      0.8143      7.4506
H     10.3444      1.6513      8.2037
4

H      9.9985      0.3408      8.2249
H      9.5594      1.1305      6.6766
O     10.2343      0.7971      7.3957
H     10.5391      1.3819      8.1178
4

H      9.8743      0.2521      8.2259
H      9.3518      1.0600      7.2435
O     10.3160      0.8262      7.5320
H     10.4952      1.8167      7.7398
4

H     10.5077      0.3465      8.7371
H      9.5505      0.8598      7.4125
O     10.4393      0.7652      7.5800
H     10.7631      1.6510      7.7906
4

H      9.5187      1.5746      6.9157
O     10.3543      1.0240      7.4344
H     10.5240      1.0793      8.6248
H     10.4620     -0.0629      7.0636
4

H      9.7471      2.0274      6.7791
O     10.3419      1.2894      7.3606
H     10.1083      0.9507      8.4455
H     10.0464      0.2051      6.9996
4

H      8.6145      5.3383      9.6337
H      9.8087      4.2109      9.2538
H      9.9602      5.8522      9.1512
O      9.4070      5.1066      9.1754
4

H      8.4299      4.9731      9.6344
H     10.0512      4.3732      9.2299
H     10.0172      6.0859      8.8674
O      9.4332      5.1449      9.1656
4

H      8.9275      4.6926      9.9198
H      9.9977      4.1859      8.9750
H      9.6053      5.9489      8.6402
O      9.4797      5.0638      9.0037
4

H      9.1952      4.7033     10.1848
H     10.1140      4.2082      8.7641
H      9.6515      5.8812      8.7873
O      9.6138      4.9446      9.0150
4

H      9.1625      4.8919     10.0810
H     10.1273      4.1801      8.7429
H      9.7315      5.8896      9.2799
O      9.5067      4.9413      9.0781
4

H      9.2920      4.7910     10.0751
H      9.4518      4.0348      8.6843
H     10.2424      5.3722      8.7584
O      9.2456      4.9754      9.0179
4

O     12.0483      1.5759     11.7459
H     12.3382      2.2998     12.4691
H     11.5010      0.8678     12.0698
H     12.2433      1.8141     10.8046
4

O     11.8891      1.6163     11.8412
H     12.2642      2.5022     12.2605
H     11.9659      0.6465     11.7979
H     11.9094      2.1814     10.8969
4

O     11.9028      1.6258     11.8186
H     12.0176      2.0481     12.6955
H     11.8266      0.6790     11.8735
H     11.7383      1.7359     10.7480
4

O     11.8410      1.5859     11.7690
H     11.7694      1.8443     12.8549
H     11.6187      0.6374     12.1186
H     11.5922      1.9049     10.8662
4

O     11.8234      1.6554     11.7230
H     12.0163      2.1559     12.6605
H     11.2303      0.7629     12.0692
H     11.8357      1.8256     10.6788
4

O     11.9020      1.7233     11.6780
H     11.9786      2.3126     12.6045
H     10.9686      1.0481     11.4077
H     12.0553      1.3387     10.7963
4

O     11.8540      1.6464     11.7475
H     11.7672      2.6138     12.2245
H     10.9753      1.2366     11.7288
H     12.0659      1.5772     10.8353
4

O     11.7256      1.7853     11.6858
H     11.8237      2.8128     11.8861
H     10.9971      1.3488     11.9675
H     11.7970      1.4664     10.9061
4

H      7.5001      2.2363     13.2061
H      7.8952      3.0376     11.7770
O      8.3456      2.6314     12.6882
H      9.0261      1.9535     12.1710
4

H      7.6335      5.8278      5.7193
H      7.5629      3.8571      6.0685
H      8.8670      4.9695      6.1859
O      7.9205      4.7702      6.1903
4

H      7.9210      2.1843     13.3218
H      7.4810      3.1701     11.7898
O      8.2390      2.7177     12.6229
H      9.0076      2.0327     12.4058
4

H      7.8964      5.6428      5.9316
H      8.1373      3.8281      6.0294
H      8.7908      4.8734      6.9331
O      7.9721      4.7811      6.3222
4

H      7.8966      5.5207      5.5271
H      7.9213      4.0007      5.8933
H      8.8265      4.8886      6.7629
O      7.9558      4.7995      6.3345
4

H      7.8810      5.3234      5.4386
H      7.4308      3.8543      5.8140
H      8.8400      4.8876      6.8500
O      8.0291      4.8466      6.3142
4

H      6.8121      2.0258      0.4975
H      6.4594      0.3370      0.1279
O      6.4326      1.1178      0.7688
H      5.3859      1.2323      0.8791
4

H      7.4576      1.7802      0.5127
H      6.1406      0.6078     -0.2851
O      6.5459      1.2830      0.5960
H      6.1198      2.1468      0.6509
4

H      7.5880      1.7817      0.6178
H      6.3751      0.5680     -0.1664
O      6.6420      1.2336      0.6244
H      5.8437      1.8890      0.3834
4

H      7.6072      1.8911      0.1252
H      6.5752      0.1830      0.0259
O      6.6828      1.1354      0.6394
H      5.7890      1.5560      0.6492
4

H      7.3904      2.5199     12.2047
H      8.3284      3.6456     12.8181
O      8.3634      2.5539     12.6644
H      8.7909      2.5896     11.6580
4

H      7.2881      2.4645     12.3264
H      8.4250      3.4703     12.3184
O      8.3962      2.5219     12.5964
H      9.3360      2.1630     11.7354
4

H      7.3195      2.6508     12.2309
H      8.5593      3.4239     12.3982
O      8.2928      2.5152     12.6395
H      8.6071      2.5945     11.5681
4

H      7.2640      2.4272     12.2574
H      8.5117      3.4379     12.3235
O      8.2557      2.4439     12.5625
H      8.6355      2.3510     11.5712
4

H      7.4133      2.4735     12.7598
H      8.4447      3.3771     12.9825
O      8.3176      2.4621     12.5233
H      8.3085      2.0004     11.5543
4

H     12.2096      0.2156      4.6964
O     12.0574      1.4080      4.5041
H     11.3703      2.1157      4.2431
H     12.7988      1.1928      3.8626
4

H      9.0715      1.5140      8.8934
H      9.4303      1.2069      6.6674
O      9.5883      1.1807      7.8121
H      9.5771      0.1196      7.9584
4

H      9.3186      1.5379      8.6743
H      9.2781      1.6551      6.9673
O      9.5053      1.1394      7.8242
H      9.8785     -0.0174      8.0801
4

H      7.7929      5.5873      5.8441
H      9.2257      5.1816      6.2414
O      8.2608      4.8924      6.4409
H      7.9834      4.0203      6.6206
4

H      8.1617      5.6124      5.5615
H      9.2717      4.6982      6.2416
O      8.3160      4.8901      6.3230
H      8.1800      3.8053      6.3148
4

H     10.0699      5.1920      9.2296
H      8.8514      3.8380      8.3814
H      8.6799      5.5255      8.3139
O      9.3825      4.7555      8.4856
4

H     10.0281      5.2645      9.0305
H      8.9026      3.6662      9.2113
H      8.7533      5.1971      8.0339
O      9.4445      4.5972      8.4682
4

H     10.1365      4.9151      9.1527
H      8.6417      3.8602      8.4931
H      9.0822      5.2961      7.7820
O      9.4565      4.5706      8.3550
4

H     10.4770      4.5538     11.9493
H     10.8480      5.1700     10.2221
H      9.3729      5.9792     10.8970
O      9.9521      5.2095     11.0583
4

H     10.5199      5.6567      9.3969
H     11.9315      6.7803      8.4698
H     12.2536      5.5416      8.9472
O     11.4504      5.9221      9.2795
4

H     10.6198      5.9541      9.4921
H     11.3999      6.7071      8.4644
H     11.6626      5.1110      8.8296
O     11.4591      5.9598      9.0976
4

H     10.9411      5.6730      9.5335
H     11.8375      6.7203      8.3216
H     11.4677      5.3390      8.2343
O     11.5792      5.9440      8.9193
4

H     11.0910      6.1570      9.6200
H     12.1849      6.7767      8.4696
H     10.7671      5.5942      8.3815
O     11.7335      5.8585      8.8735
4

H      0.5192     13.1891     10.8881
H      0.2053     12.5590     12.0067
H     -0.9037     12.5308     10.9939
O      0.1826     12.3367     10.9677
4

H     13.6049     13.2486     11.3395
H     12.9047     11.6687     11.9539
H     12.0228     12.2099     10.8989
O     12.8856     12.2491     11.0947
4

H      0.5925     13.2494     11.3383
H     -0.1157     11.5110     11.8038
H     -1.0902     11.9665     11.0786
O      0.0555     12.0920     11.1770
4

H      7.2027      4.3385      6.3683
H      8.8834      4.3349      7.5735
H      9.2744      4.0042      6.0538
O      8.4051      4.3832      6.5914
4

H      6.8724      3.7898      5.9516
H      5.5348      3.4562      4.9226
H      6.8752      4.5596      4.6391
O      6.3431      3.9875      5.2430
4

H      6.7666      3.5883      6.2186
H      5.7007      3.4488      5.2664
H      6.9496      4.8913      5.1866
O      6.3512      4.1253      5.4330
4

H      7.2312      3.6507      1.4734
H      7.3573      2.3053      0.3261
H      7.2203      3.4146     -0.3419
O      7.0706      3.2067      0.5501
4

H     11.6256     12.9201      5.1618
O     12.4409     12.0198      4.7820
H     12.9081     11.4003      4.3099
H     12.2069     11.4798      5.4834
4

H      6.8881      2.0325      0.3941
H      5.4633      3.3314      0.3169
H      7.2561      3.3066     -0.0109
O      6.5099      2.8777      0.2829
4

O     12.1195     10.4958      8.3548
H     12.1218     10.9682      7.5562
H     11.5904     10.9029      8.9806
H     11.5240      9.8069      8.0718
4

O     12.1521     10.5043      8.3368
H     12.3576     11.3033      7.4056
H     11.4321     11.0513      8.9318
H     11.4775      9.6679      7.6154
4

H      1.8634     11.3530      7.7400
O      1.2067     11.6111      7.1104
H      1.3322     10.7165      6.2020
H      0.3253     11.4885      7.6854
4

H     11.5211      1.0841      5.8744
O     10.7431      0.9200      5.4197
H     10.9360      0.5355      4.5319
H      9.8121      1.2721      5.6292
4

H     11.0747      1.6167      5.2920
O     10.6455      0.8357      5.4773
H     10.3396      0.0891      4.6200
H      9.7642      0.9607      5.9081
4

H     10.3740      1.4447      4.8724
O     10.5757      0.7564      5.5069
H     10.2190      0.1028      4.9804
H      9.9073      1.1615      6.3194
4

H     10.1208      1.4616      4.8281
O     10.5349      0.6961      5.5272
H     10.0617     -0.0919      5.2524
H     10.3475      1.0143      6.4967
4

O      0.0325     11.5885      4.1464
H      0.0376     10.7469      4.7828
H     -0.1121     11.1450      3.1219
H      0.1593     12.6869      4.1703
4

O     12.4706     11.4874      4.3034
H     11.9872     10.7297      4.5392
H     13.1212     11.0326      3.6850
H     12.7501     11.8999      5.0951
4

O     12.4620     11.5654      4.3583
H     11.7718     10.8817      4.3441
H     13.3715     11.3499      3.8922
H     13.1066     11.6835      5.2182
4

O     12.6021     11.5460      4.4166
H     11.8781     11.0345      4.7926
H     13.0957     11.0641      3.9052
H     13.1557     11.6249      5.3095
4

O     12.7029     11.5343      4.5630
H     11.6209     12.0001      4.4979
H     13.3902     11.4774      3.5611
H     13.1958     11.3820      5.4633
4

O     12.7431     11.6351      4.3113
H     11.8845     11.6640      4.1628
H     13.3307     11.3144      3.6750
H     13.1262     11.2049      5.1546
4

O     12.6365     11.5604      4.2450
H     11.4286     11.6566      4.0544
H     13.3253     11.8064      3.6123
H     12.8829     11.4616      5.2909
4

O      8.9648     12.0908      2.7303
H      8.0848     12.0742      3.2899
H      9.8262     11.8393      2.1001
H      9.5326     11.9552      3.5556
4

O      0.0137     11.4917      3.8948
H     -0.8404     12.0432      3.9560
H      0.7108     11.1750      3.2981
H      0.1496     11.0428      4.6232
4

O     12.9128     11.5024      3.7419
H     11.9172     11.4221      3.9800
H     12.9568     10.8503      3.2581
H     13.1113     11.0004      4.7659
4

H      5.1880      3.3950      1.1860
O      5.3862      3.1733      0.2581
H      6.2963      3.6200     -0.4200
H      4.8646      2.9049     -0.5541
4

H      4.8656      3.3402      1.2287
O      5.4636      3.2297      0.1678
H      5.9868      4.2605      0.0412
H      5.3431      2.6144     -0.4565
4

H      5.2518      3.0119      1.3915
O      5.3478      3.2133      0.3360
H      6.0907      3.7941     -0.1381
H      4.6033      3.4094     -0.1957
4

H      5.8814      2.2902      1.1814
O      5.3821      3.2771      0.4575
H      6.0868      3.4014     -0.0357
H      4.3325      3.4447      0.6472
4

H      1.0615     11.0456     10.7937
H     -0.1135     11.3806     10.6451
H      1.1121     12.3707     11.3307
O      0.6765     11.9337     10.6734
4

H      0.6172      1.4028     11.4983
H      1.1321     -0.1873     11.1899
O      0.8373      0.4633     11.8609
H      1.0231      0.4394     12.8655
4

H      0.9184      1.4428     11.8375
H      1.2893     -0.3154     11.1184
O      0.8881      0.5003     11.7553
H      1.3105      0.2183     12.5527
4

H     11.3388      5.3358      8.1347
H      9.6613      4.3849      7.7766
H     10.0493      5.8920      9.0853
O     10.5220      4.9072      8.5310
4

H     11.2329      4.7339      7.9644
H      9.6533      4.8695      7.9488
H     10.5675      5.9575      8.6398
O     10.5206      4.9228      8.5351
4

H     11.0684      4.6221      7.7447
H      9.6111      4.6376      8.1112
H     10.2201      6.0467      8.7863
O     10.5162      4.9022      8.5330
4

H     10.9548      5.4681      7.6417
H      9.5817      4.7895      8.0460
H     10.3532      6.1577      8.6949
O     10.4551      5.1252      8.4750
4

H     10.8112      5.6090      7.7410
H      9.9683      4.4578      7.9739
H     10.2234      6.1383      9.0712
O     10.4656      5.1038      8.5278
4

H      0.6246      0.2644     10.7882
H      0.5794     -0.5037     12.3831
O      1.1116      0.3879     11.5799
H      1.7957      1.3126     11.6644
4

H      0.4632      0.3020     10.7758
H      1.0024     -0.2063     12.3383
O      1.0731      0.3961     11.6015
H      1.3768      1.3823     11.7215
4

H      6.3008     12.4702      1.2374
O      6.3958     12.3444      2.4609
H      7.3015     12.4976      3.1499
H      5.4717     12.3865      2.7955
4

H      6.4623     12.2633      1.4555
O      6.2756     12.1991      2.4966
H      7.0273     12.7477      2.8203
H      5.2252     12.4348      2.6739
4

H      4.1510     12.2948     11.5880
H      3.0310     12.0761     10.4441
H      2.8951     11.0320     11.5441
O      3.5138     11.6138     11.1707
4

H      4.4204     12.1358     11.6379
H      3.0814     12.2844     10.6455
H      2.8052     11.2946     11.6171
O      3.6123     11.6199     11.2621
4

H      4.2157     11.9750     11.9273
H      3.1183     11.6540     10.5865
H      3.0303     10.6620     11.8212
O      3.6732     11.3269     11.3325
4

H      4.0526     12.2124     12.0015
H      3.1453     11.8068     10.4909
H      3.2510     10.5512     11.5856
O      3.7878     11.3338     11.3877
4

H      7.6350      4.1507      7.0643
H      7.9957      3.9407      5.4081
O      8.3485      4.3245      6.3743
H      8.6001      5.3126      5.9682
4

H      7.9247      4.4157      6.9888
H      8.4613      3.6419      5.4932
O      8.5465      4.3349      6.2642
H      8.9077      5.2328      6.0559
4

H      7.9562      4.5693      6.7323
H      8.4102      3.4757      5.9015
O      8.7328      4.3696      6.1384
H      9.1356      4.9056      5.3627
4

H      8.0989      4.7416      6.9426
H      8.1811      3.4392      5.6123
O      8.5859      4.4738      6.1031
H      8.4489      4.7508      5.0338
4

H      4.7005     12.3233      0.7567
H      2.7507     11.5274      0.8367
H      4.2409     10.8208      1.1373
O      3.7066     11.6817      1.1331
4

H      1.8198     10.0748      4.6948
O      1.0754     10.5996      4.5832
H      0.7903     10.9006      5.5988
H      0.7934     10.4882      3.5773
4

H      1.9035     10.2274      4.6647
O      1.0528     10.7263      4.5344
H      0.6816     10.7183      5.4809
H      0.9879     10.4940      3.4588
4

H      8.2253      2.6444      2.7557
O      8.7015      1.6668      3.2084
H      9.9313      1.9720      2.8769
H      8.3241      1.2393      2.4463
4

H     -0.2332     10.2872     10.6528
H      0.9972     10.9963     11.8441
O      0.8198     10.8240     10.7567
H      1.6595     10.5539     10.2105
4

H     -0.0277     10.8490     10.4915
H      0.9672     11.4545     11.3633
O      0.8200     10.7347     10.7860
H      1.4846     10.1552      9.8503
4

H      4.2618     10.2393      0.6496
H      4.6915     11.8166      1.2327
H      3.1536     11.2961      1.1471
O      4.1272     11.2401      0.7071
4

H      2.6161     10.3986      4.3492
O      1.5632     10.5479      4.3629
H      1.2670     11.3733      5.0172
H      1.3425      9.8194      3.5547
4

H      2.5932     10.7359      3.7807
O      1.5946     10.5916      4.3090
H      1.0310     10.6699      5.1004
H      1.7544      9.7789      3.9572
4

H      1.3261     13.9500     12.2238
H      0.4268     12.3716     11.3786
O      0.9693     12.9293     11.8915
H      1.3697     11.9497     12.0913
4

H      2.7520     10.3044      3.8667
O      1.6504     10.5791      4.3482
H      1.4495     10.2583      5.4276
H      1.7775      9.6338      4.0936
4

H      4.6864     12.1135      0.6385
H      3.8480     10.6705     -0.3040
H      3.2310     11.7837      0.9632
O      3.9700     11.4217      0.4731
4

H      2.5064     10.3793      4.0850
O      1.5433     10.5143      4.4389
H      0.6447     10.0121      5.1010
H      1.0074     10.4123      3.7326
4

H      2.5859     10.7869      4.4198
O      1.5651     10.7261      4.6217
H      1.3545     10.2895      5.5067
H      1.2116     10.7385      3.5311
4

H      2.2676     11.4939      4.8167
O      1.6560     11.0229      4.2060
H      1.8765     10.0469      4.5652
H      0.5908     10.9881      3.6764
4

H      2.4422     10.9582      4.9749
O      1.7631     10.6040      4.1959
H      0.7474     10.8115      3.7432
H      2.4128     10.7405      3.1539
4

H      2.4282     10.8796      4.8511
O      1.6384     10.5944      4.1735
H      0.7702     10.8745      4.0227
H      2.0837     10.4825      3.1405
4

H      2.4038     10.9351      4.3168
O      1.4517     10.6575      4.0873
H      0.9339     11.0104      4.6715
H      1.5524     10.1567      2.8790
4

H      0.8402     11.9656     11.1444
H      2.1932     12.7890     10.7462
H      1.3754     13.9553     11.4527
O      1.5033     12.7783     11.4574
4

H      0.6318     12.8584     11.2376
H      2.3599     12.0991     11.1108
H      1.7902     13.1769     12.2478
O      1.6311     12.7853     11.4526
4

H      0.5103     13.3696     11.5901
H      2.1659     12.2672     10.7534
H      2.5262     12.8804     11.9353
O      1.5392     12.7873     11.3600
4

H      0.6732     13.3268     11.2346
H      2.1616     12.5503     10.5586
H      2.0321     12.7914     12.4195
O      1.5855     12.8432     11.2590
4

H     11.5215      0.0590      3.6880
H     12.1767      1.4845      4.5754
O     12.2558      0.9925      3.7037
H     12.4456      1.4174      2.8207
4

H     11.5648      0.2619      3.7561
H     12.0335      1.5849      4.2553
O     12.3395      0.9251      3.6307
H     12.4720      1.6899      2.7152
4

H     11.7301      0.0399      3.1364
H     11.8607      1.4093      4.3568
O     12.2990      0.9148      3.6719
H     12.1069      1.5731      2.9836
4

H     11.4669      0.4605      2.7912
H     11.8169      1.5292      4.1820
O     12.1692      0.8733      3.6712
H     11.8572      1.6575      2.9311
4

H     11.7927      0.0311      3.3019
H     11.9824      1.2901      4.3238
O     12.1845      0.8566      3.5701
H     11.7545      1.6534      2.8963
4

H     11.6559     -0.0723      3.2293
H     12.3122      1.4986      4.2688
O     12.2746      0.7928      3.5250
H     11.8317      1.5039      2.9141
4

H     11.3164      0.4833      4.0082
H     12.2987      1.3622      4.2534
O     12.3001      0.7249      3.4101
H     11.6655      1.2290      2.6813
4

H     11.0029      2.5759     10.4724
H     11.0287      4.0511     10.0328
H     10.3856      4.1572     11.5728
O     11.0678      3.5808     10.7725
4

H     10.6429      2.8385     10.6315
H     11.0909      4.2056      9.7151
H     10.3590      4.1221     11.0402
O     11.1876      3.6387     10.7081
4

H     10.7530      2.5904     10.8388
H     11.3816      4.2926      9.6631
H     10.4142      3.9468     11.4841
O     11.1350      3.5234     10.6743
4

H     10.3962      2.4818     10.9461
H     11.2513      4.3928     10.2850
H     10.4237      4.3084     11.1305
O     11.1084      3.4674     10.6278
4

H     11.6388      0.7783      4.3423
H     12.7124      1.8110      3.7738
O     12.5358      0.7636      3.9013
H     12.1573      0.3829      3.0298
4

H     -0.5700      8.2389      9.2171
H     -0.2553      9.3216      8.1032
O      0.2086      8.7801      8.8398
H      1.1442      9.1620      9.0479
4

H     -0.1265      8.4111      9.5498
H     -0.1814      9.5940      7.7793
O      0.1385      8.8737      8.7897
H      1.1989      9.0983      8.6732
4

H      1.6476     10.9756     10.1665
H      1.5434     10.8436      8.8022
H      1.6460      9.2402      9.2403
O      1.9816     10.3504      9.4961
4

H     12.8967     11.3689     11.2597
H     12.1342     10.8539     10.2976
O     12.9778     10.7476     10.5778
H     12.7970      9.5785     10.8662
4

H      0.4284     10.8814     11.4373
H     -1.1246     10.9578     10.2735
O      0.0576     10.6512     10.6242
H      0.0959      9.7710     11.0012
4

H     13.5990     10.8253     11.2382
H     12.0445     11.2079     10.3140
O     12.9031     10.4441     10.6643
H     12.9616      9.5298     10.9226
4

H     13.2684     11.0310     11.2935
H     11.8817     10.7501     10.1270
O     12.8764     10.5504     10.4975
H     13.1291      9.5900     10.7011
4

H     13.6038     11.4947     11.0254
H     11.8609     10.1637     10.5569
O     12.8892     10.5776     10.5164
H     13.1160      9.5928     10.2838
4

H     13.6539     11.2899     11.1913
H     12.1908     10.4256     11.0843
O     12.8732     10.6958     10.5803
H     13.2894      9.8974     10.0000
4

H      0.8429     11.2674     10.7329
H     -0.8037     10.4456     10.8364
O      0.0568     10.7543     10.3798
H      0.1865      9.8330      9.9460
4

H      0.9314     11.4123     10.9670
H     -0.8480     10.5752     10.6650
O      0.0683     10.8051     10.3906
H      0.2235      9.7864      9.8379
4

H      0.2620     11.6091     10.8083
H     -0.7466     11.0645     10.8053
O      0.0340     10.7842     10.3331
H      0.9678     10.0704     10.2386
4

H      0.4074     11.6743     10.8889
H     -1.0304     10.2773     10.6984
O      0.1474     10.6960     10.3070
H      1.1585     10.5480      9.5435
4

H      0.6422     11.6011     10.9008
H     -0.7722     10.4312     10.7059
O      0.2284     10.7100     10.3440
H      1.1346     10.6321      9.6837
4

H      2.4460      9.4113      9.1880
H      2.4576     10.8313      8.4079
H      1.3742     10.1233      9.9538
O      2.2078     10.2827      9.1354
4

H      2.2869      9.3187      9.1229
H      2.2630     11.0184      8.3922
H      1.4045     10.4699      9.7993
O      2.2003     10.2717      9.1226
4

H      2.2538      9.2082      8.9847
H      2.2491     10.8041      8.4372
H      1.0939     10.4828      9.7213
O      2.1260     10.1624      9.1433
4

H      0.6131     11.6783     10.7958
H     -0.6189     10.8054     10.2943
O      0.2681     10.7537     10.3327
H      0.8905     10.4703      9.5712
4

H      0.4963     11.8751     10.9901
H     -0.6869     10.7981      9.8725
O      0.2395     10.7476     10.3466
H      0.7740     10.2318      9.6660
4

H      1.3017      1.0601     10.9926
H      2.4599      2.3537     10.7154
O      1.4133      1.9609     10.6605
H      0.6563      2.6628     10.8506
4

H      1.1042      1.0000     11.2567
H      1.8354      2.4303     11.6082
O      1.2254      1.9592     10.8107
H      0.1966      2.5517     11.2661
4

H      1.2388      0.8962     11.1538
H      1.7942      2.4539     11.4202
O      1.1838      1.8677     10.9953
H      0.1474      2.6218     11.0877
4

H      1.0075     13.3896     11.0460
H      0.6719     11.6298     10.9720
H      0.4675     12.6666     12.5894
O      0.6597     12.5580     11.6842
4

H      0.6160     13.4218     10.9340
H      0.6866     11.5291     12.0052
H      0.4860     12.7291     12.6500
O      0.7454     12.5392     11.8169
4

H      3.6420     10.8296     -0.4898
H      4.3224      8.8798      0.0616
O      3.8218      9.6761      0.1116
H      3.5371      9.5453      1.1839
4

H     11.1319      2.4342     11.1710
H     12.2621      3.8690     10.2086
H     12.9520      2.5088     11.0113
O     12.0805      2.8373     10.9698
