   96
 7.37350201152430e+00  8.43844749639771e+00  7.56087233084969e+00
 O  3.89561408270920e+00  8.33989417730928e+00 -4.13447402848632e+00     5.42005179955500e-01  4.67788745798421e-01 -4.50987024947263e-01 
 H  1.80696068086764e+00  6.16210246621652e+00 -3.91202480980016e+00    -1.43038579017015e+00 -1.86264439698891e+00 -4.06680849883644e+00 
 H  6.06361136921499e+00  1.25876825769792e+01  3.92861153312000e+00     5.11900541402535e-01  2.39223372127892e-01  1.66693632188455e+00 
 O  9.73546641054392e+00  1.21762587870188e+01  6.01924287023030e+00    -5.46726579057830e-01 -2.54798725670268e-01  2.69634750136465e-01 
 H  1.62454200597149e+00  2.00227577991910e+01 -7.08447767691616e+00     1.01201905133254e+00 -2.62351707598149e+00 -4.35002209459944e-01 
 H  1.31054881093978e+01  2.02744877067576e+00  7.06935585068785e+00    -1.29141509355018e+00 -1.87848411099292e+00 -1.08236348604064e+00 
 O -5.24907379590551e-01 -8.21527306416684e+00  5.12680484940862e+00    -7.17365957504494e-01  3.38148940292110e-02 -4.61471656714562e-02 
 H -5.75590649592738e+00  6.62007144249962e+00  9.02544567098555e+00    -2.26055572575479e-01  2.85394343848779e+00  1.76102917858309e+00 
 H  4.86985746970152e+00  1.20139991434736e+01  9.98539223945075e+00     6.79968750328346e-01  6.73306331580713e-01 -5.74288701014394e-01 
 O  1.36349851405879e-01 -8.11560630910184e-02  4.09382153464100e+00    -1.45318155227781e-01  4.37690074934734e-01 -8.41527620205408e-01 
 H  5.87651165496927e+00  2.54197508637485e+00  5.99387400272844e+00     8.60338449342859e-01 -9.26744650740045e-01 -6.63775905102087e-01 
 H -6.92109195848431e+00  1.99716941421509e+01 -5.70555608714135e+00    -9.79319702943509e-02  3.10906638355797e+00 -3.27511035439567e+00 
 O  5.96280428185285e-01  7.03627709031025e+00  6.73392453001891e+00    -1.23148458933175e-01 -6.56806654791378e-01  1.36843946819787e-01 
 H  4.91561748603684e+00 -8.19100591208060e+00  1.46388010428047e+01    -1.01138569300167e+00 -1.34552409453531e+00 -2.16250173965633e+00 
 H -4.52035924806394e+00  7.61423714157760e+00  5.78204395130967e+00    -1.03015275827591e+00  2.14408163845163e+00  3.16226740804213e+00 
 O  1.06859772794534e+01  5.20983292603146e+00  7.57980438585830e+00    -2.41652883149219e-01  2.03799050603957e-01  8.88041727828679e-01 
 H  1.25965831856767e+01  1.34052930977626e+01 -5.15143387155783e+00     1.30815965872664e+00 -3.36224902965326e-01 -6.47338104668611e-01 
 H -2.23653480032051e-01 -2.30971178059669e+00  5.22452112439747e+00     1.71775229409067e+00  2.75086921654062e+00 -2.15621530230617e+00 
 O  2.32407857289235e-02  5.01349529498553e+00  1.18243348617459e+00     3.48875844475209e-01 -7.37837459027354e-01  6.60258774262969e-01 
 H  2.41673192354823e-01 -2.26315332202923e+00  8.31904390784004e+00     2.82148534223405e+00 -4.07040105008557e-01  3.92661881281440e-01 
 H  2.40221079023252e+00  1.45566595836199e+01 -4.88627000750559e+00     1.12864009069313e+00 -4.01637470786442e-01 -2.01892231290182e+00 
 O  7.13421245407321e+00  1.02489216622779e+01  1.21420025267475e+01     3.52068162219074e-01  1.16850633221959e-01 -1.91962193765256e-01 
 H  1.62312269623900e+00  6.84318978490419e+00  5.63216083968857e+00     5.42591146296473e-01  6.48951691887386e-01  2.44535711460223e-01 
 H  1.42285577069979e+01  3.24864476117285e+00  6.96129363980819e+00    -1.96291876926905e+00 -4.61267061633423e-02 -2.62923916202281e+00 
 O  5.12252118815598e+00  2.10700146714567e+00 -2.43570194401720e+00    -3.92016622564229e-01  7.89031041697553e-01  2.03494256709245e-01 
 H  1.72870529286951e+00  7.74907299632788e+00  9.66524647893656e+00     2.64539965615134e-01  8.18819574666015e-01  9.31205142881828e-01 
 H -1.23980657119882e+01  1.29742060732004e+01  4.84777803041644e+00     1.27377376942185e+00  1.14122505274832e+00 -1.83157136617091e+00 
 O  1.07940714497368e+01 -3.29770205628910e+00  1.47588429515874e+00     5.28713324388903e-01 -4.12374534321613e-01  7.84507549490450e-01 
 H  1.45151647720040e+01  9.88434282751304e+00  6.60368834607276e+00     2.77959598346125e+00 -6.86680141143771e-01 -1.05805196029175e+00 
 H  1.10867541847369e+01  2.93370169687293e+00  3.92075267900565e+00    -8.85817110155006e-01  6.13055571833002e-01 -1.83632861624046e+00 
 O -1.62109769356530e+00  1.03467212607574e+00  3.74491316853142e-01    -5.25227135027506e-01 -1.85830558008144e-01 -2.03824959680111e-01 
 H  7.77752008048125e+00  1.23637303237981e+01  5.14664503105046e+00     1.94243826876854e+00  7.12919183552498e-01 -2.36049046053672e+00 
 H -3.67430628924392e+00  8.60123374332131e+00  6.72203960313646e+00    -9.24213094029784e-01  1.15108714509366e+00 -2.49901454487879e+00 
 O  4.30516003870400e+00  2.82041683621742e+00 -1.74847813629358e+00     5.39304980061933e-01 -1.08203752924491e-01 -8.70580850842267e-01 
 H  4.06920985456602e+00  5.56032303897527e+00  1.03903809008962e+01    -1.29854070600167e-01  3.39132051935172e+00 -2.94085583049416e-01 
 H  9.41302155778450e+00 -8.79990767455325e+00  4.21778142553216e+00    -2.39376127276711e+00  1.15312768873383e+00 -2.42954159014291e+00 
 O -1.70567459189326e+00 -8.71555498088021e+00 -2.92880335483558e+00     4.12418717990549e-01 -9.62868727951271e-02 -8.84798154737879e-01 
 H -5.70329726777005e+00 -1.58608499615697e-01  1.53063880993881e+01     1.38789081127907e+00 -3.18727702773832e+00  1.46562423896888e+00 
 H  1.61489788436163e+01  5.95621325428005e+00  7.09299214406671e+00     4.40484987780497e+00  8.50000822817007e-01 -2.86194825536590e-01 
 O  6.46254944776590e+00 -1.45395960039310e+00 -2.97377283411282e+00    -7.31453843637331e-01 -5.03740536616136e-01  1.41175234883775e-01 
 H  4.60471397444758e-01  8.66625470439499e+00  6.55289581705590e+00    -1.40113384725973e-01 -2.24701462577155e+00 -4.95659127459250e-01 
 H  1.79508896053176e+01  9.55881075415348e+00 -4.52348627130088e-01     8.92107159609066e-01  4.22958351252732e-01  2.65369984834966e+00 
 O  2.81418193307696e+00  5.16429566785462e+00 -4.25207312786096e+00    -5.46598292925131e-01 -5.66023067229454e-02  7.84851776598075e-01 
 H -6.69372200085603e+00  5.81413951548326e+00 -3.94975417646307e+00     3.49349182870827e+00  1.81657150206612e+00 -1.55489582819852e+00 
 H -6.81914709437086e+00  6.81482847861348e+00  4.31355103801050e+00    -3.97221076333959e+00 -2.01153948436936e+00 -2.64592565325058e+00 
 O  9.53376686457214e+00  9.04237708076176e+00  8.83734586353097e+00     4.09777054228075e-01 -6.83370099219953e-02  1.36397851770662e-01 
 H  1.26747167064110e+01  1.32859185735576e+01  1.38852817271142e+01    -2.46781721374215e+00  5.30293110185359e-01  1.60917398344091e+00 
 H -1.62804778939839e+00  3.68770225434533e+00 -4.80179329315309e-01    -1.67903871132403e+00 -4.21283168422539e+00  4.66080189163269e-01 
 O  4.27966023876078e+00  1.56736600149768e-01  4.61124991222783e+00     9.07182415147550e-01 -1.35589944966458e-01 -5.49785726144173e-01 
 H  3.97971167728485e+00  1.01324557103729e+01 -1.19785565283140e+01    -3.82338887243471e+00 -1.15103301873716e+00  1.35571736029472e+00 
 H  8.07545636651109e+00  5.11737371607684e-01 -7.22697852385802e+00     8.97109898388452e-01  4.72947720858320e+00  5.53268664342673e+00 
 O  2.78095619101250e+00  2.19760030212759e+00  5.72372044719140e+00    -2.14596631829152e-01  5.72791117993338e-01 -1.89508258677313e-01 
 H  6.21462894456941e+00  9.67392509877161e+00 -4.70357328500254e+00     1.65465498446903e+00 -1.40778107415414e+00 -2.63218804967673e+00 
 H  6.88093922814800e-01 -2.83242793929218e+00  1.34806434350084e+01    -3.53162187788048e+00  1.90879216016712e+00  2.04421226893487e+00 
 O  1.08639470867571e+01  7.06494617580871e+00  9.33280011088336e+00     2.98066435993785e-01  1.46475633194730e-01 -2.69806409705505e-01 
 H  3.61243773220324e+00  5.71687227768679e+00  5.56857904752418e+00    -3.38165990665743e-01 -7.86803987802087e-01 -1.14696751921753e+00 
 H  1.11518521061525e+01  1.26946640037567e+01  6.00915768132495e+00    -9.64903314584641e-01 -2.81198363284938e+00 -1.75015484724385e+00 
 O  6.67981197154221e+00  7.39041826697981e+00  7.54077754022397e+00    -5.92753364541113e-01 -1.21030193250488e-01 -9.45290067674456e-01 
 H  3.52369346229061e-01  3.40484690413814e+00  1.08483311439326e+01    -4.09000814261767e-02  1.77949426123818e+00  1.43461774368231e+00 
 H -8.31632575193242e+00  2.55760695100654e+00  4.00949285063832e+00     3.98718859744775e-01 -1.38188906305571e+00  6.41891305463593e-01 
 O  2.68045647272752e+00  1.95718073641640e+00  8.48157270435672e+00    -1.27923513258180e-01  4.24639084735585e-01  1.15988358368564e+00 
 H -5.66245531278091e+00  1.11825614022958e+00  1.18826738354632e+01     3.97556660751751e+00 -5.34009582440121e-01  1.17980480856794e+00 
 H  1.63478683460105e+01 -1.41788678141858e+00  7.05221576764962e-02     1.77375520934768e+00 -3.76435236755864e+00 -2.40089577368839e+00 
 O -5.73802008540508e+00  2.31669927820491e-02  5.72753824541663e+00    -3.66386820998639e-01 -1.13496024579987e+00 -2.84428475905649e-01 
 H -9.15746418324192e+00 -6.00065672901141e+00  1.05962720532834e+01     1.58497663289687e+00 -1.14183484616217e+00  2.86966655898151e+00 
 H  1.54616597407964e+01  1.11935635422205e+01 -6.28763078916340e-01    -6.80111692737595e-01 -2.76008512862549e+00 -2.33210507675941e-01 
 O  2.05953257477284e+00  1.33364752410996e+01  4.11544482565120e-01    -2.87846037610671e-01  2.09891458561212e-01 -6.62913926064477e-01 
 H  8.30012335764611e+00  1.03017026161372e+01 -6.56172228639801e+00    -2.24642426958007e+00  4.04824481430249e-01 -5.95089194950226e-01 
 H  4.72064395429331e+00  8.68031681373843e+00  1.71255833993138e+00     6.76021455018113e-01  1.42104570507500e+00  2.42923588678878e-01 
 O  8.26073091313095e-02  7.07729160388977e+00  1.75612575297331e+00     3.44194853412976e-01  9.11682800404351e-03  4.70642772777821e-01 
 H  4.78413312756491e+00  1.37848879638842e+01 -2.67131693277150e+00     1.92370334598551e-01 -1.02742908651688e+00  1.05623691458834e+00 
 H  4.94002779841762e+00  1.60268752021201e+01  2.30348330095707e+00    -2.10977209956226e+00  1.51794476513834e+00 -2.33124936399454e+00 
 O -2.94533840477708e-01  9.65601273392020e+00  8.22752797527078e+00    -3.97015748243982e-03 -2.64151438586266e-01  2.84435618747266e-01 
 H -4.27751699003738e-01  1.34852951650345e+01  4.12957213763211e+00    -5.89013622891886e-02  2.85513748504456e+00  1.57470379268825e+00 
 H  6.05828000447352e+00  1.01918267887402e+00  6.35177093486888e+00     3.79224990324844e+00 -2.34517343652137e+00 -8.02264298915393e-01 
 O  1.26502590576168e+00  1.30916238739673e+01 -1.69100114277124e+00    -5.05665329149584e-01  1.32266648516344e-01 -2.91471042124838e-01 
 H -6.28099425979075e-01  1.33692157194294e+01  5.41265543427123e+00     1.99077366580859e+00 -1.08523401230111e+00 -1.68275981180444e+00 
 H  4.94241384293487e+00  1.18285372108762e+01 -2.76132722959877e+00    -3.95872947047642e+00  2.42488302307916e-01  1.38371243830364e+00 
 O  7.25363841471980e+00  3.10986309422905e+00  8.89978150630062e-01     7.79781861376051e-01  2.98142162195279e-01  9.35049166293471e-01 
 H  1.01567292524607e+01  1.47833707867533e+01  8.58916228986699e+00    -5.42266972091387e-01  1.15616511349506e-01 -1.18918023946595e+00 
 H  5.80738744658163e-01  4.19533270736605e+00 -8.99218178821585e-01     1.91418371025114e+00  2.17121116821525e+00  3.34356159185498e+00 
 O  1.25380444006131e+00  2.19856945387162e+00  5.34275435389548e+00     3.06572419827460e-02 -1.23820180182818e-02  6.72017036553398e-01 
 H -1.10863832165156e+00 -2.93527392409632e+00 -7.87470463007131e-01     8.87400911197152e-01  2.51227322478754e+00 -2.16957911501879e-01 
 H -4.38829186673051e+00 -4.35073798520758e+00 -4.99721994783771e+00    -3.56938092185675e+00  1.10667945547508e+00 -1.86774177341020e+00 
 O  8.37671174346059e+00 -1.52533936574303e+00  2.66181477072532e+00     1.28969302010644e-01 -1.66075648928345e-01 -1.68967037380552e-02 
 H -6.15527448658947e+00  1.06268847384184e+01  2.23703898987810e+00    -1.01640860142177e+00  1.38369527977705e+00 -1.07909406645061e+00 
 H  1.05483228245928e+00 -7.18131583628580e-01 -9.99953387413088e+00     6.65246613454683e-01 -1.39624571119371e-01 -3.33406577519288e+00 
 O  6.52597896384518e+00  6.27809638376396e+00  7.96469146145619e+00     2.86714162836728e-01 -2.99248782293246e-02 -1.37896382683635e-03 
 H  1.04177370082581e+01 -8.51304952484569e+00  2.05335699108215e+00     2.68143292047105e+00  3.98761077931238e+00 -2.59772245920841e+00 
 H  1.07275940155378e+01  1.52627587258955e+01  7.34359853499600e+00     2.88298648299848e+00 -2.73181550811872e+00  1.51549579472108e+00 
 O  1.85826721592060e+01  1.75145646185684e+00  4.60412014372568e+00     8.90450561090784e-01  6.09810206142136e-01  1.49610804679207e-01 
 H  8.34288809875610e+00  1.42001403352036e+01  9.95184095530861e+00    -2.76645561876740e+00 -2.29860184065616e+00  2.66158147312112e+00 
 H  1.15312266095869e+01  1.13984090514986e+01  8.12651059857512e+00     1.21234920756027e+00  1.46884046219639e+00  2.12851219837488e+00 
 O -3.63978702529030e+00 -4.29250705454286e+00  1.21297695171825e+01    -1.33947546499158e+00  2.28079639424398e-01  1.39455953136806e-01 
 H  6.60737028190115e+00  5.85588759471278e+00 -6.03598705408221e+00     9.96865508524078e-01 -3.55858847340804e-01 -1.65295333606695e+00 
 H  4.70811438857281e+00  5.94711230688906e+00  1.89097755097198e+01    -2.42511550132596e-01 -5.27107539406977e-01  1.50008229418863e+00 
