   96
 8.60913090000000e+00  8.60913090000000e+00  8.60913090000000e+00
 O  8.49648041582936e-01  7.40478773716567e+00  8.15997548867914e+00     7.40565258896910e-01 -2.70463796459644e-01  5.31610546862023e-01
 H  1.14180906748322e+00  5.87869259515813e+00  2.41651685373702e+00     2.85959999702875e+00 -3.17393301792970e-01  1.32411118550852e+00
 H  1.83481399585757e+00  4.47396712623249e+00  8.69548048114934e+00    -1.99589674521789e+00  6.50584585778540e-01  6.22696647389123e-01
 O  7.59196391311486e+00  8.92686778234956e+00  4.87339849932332e+00     3.36333829900725e-01  4.38454980790966e-01  1.45786776361982e-01
 H  1.45225189707774e+00  2.91886730816294e+00  7.98525674409516e+00    -1.33740089161402e+00 -4.54859685828893e-01 -2.31458432637908e+00
 H  9.19025168619649e+00  6.12964299232910e+00  5.71480528826266e+00     3.38022647931573e+00 -3.12980781113649e+00 -4.04431199025474e+00
 O  3.44213706400916e+00  8.62496675962343e+00  2.54977060080907e+00     5.25076980042382e-01 -1.03122844396965e+00 -7.15799404836659e-01
 H  2.01361613115869e+00  1.47079380546994e+00  8.47545429884044e+00     1.53844567778584e+00  8.24905335035011e-01  2.16119941275674e+00
 H  4.00540245586890e+00  6.58590025336659e+00  7.24340415451297e+00    -1.98705581839797e+00 -2.20417022246074e-01 -2.06885077843509e-01
 O  1.07424445690948e-01  2.84654143792253e+00  4.35507938653816e+00    -3.69931553399032e-01  4.20459909289919e-01  1.86829789074987e-01
 H  4.77542717131966e+00  2.90297501352552e+00  6.83361967023303e+00    -3.76452954731177e+00  5.38847221313653e-01 -1.59180727369745e+00
 H  3.86796112507224e+00  9.01850727581444e+00  5.96064696338524e+00     1.80107020097361e+00  1.14419277739218e+00  1.38437189067744e+00
 O  1.31121881490000e+00  5.00012809953525e+00  8.29660140838964e+00    -7.27020463726654e-01 -3.15845579763802e-01  3.33157829655703e-01
 H  3.85158316795194e+00  4.20514598443221e+00  3.75145374813221e+00    -2.31460038014601e+00 -1.48843309963846e+00 -1.54145751463277e+00
 H  1.56746990739019e+00  7.28879699165078e+00  1.49971457923628e+00     9.30513681949937e-01  2.61188482870751e+00 -1.13118861243172e+00
 O  8.76241529760127e+00  1.97562007546048e+00  7.38253254154263e+00     4.11515881571601e-01  7.36816847072763e-01 -1.63918715955194e-01
 H -7.00420082832230e-01  3.05175973214359e+00 -4.36857343766383e-01     1.43963362983010e-01 -2.41957540908716e+00  1.71662478076215e+00
 H  6.21682244641287e+00  3.80251907144991e+00  6.03984117128893e+00     1.03933371110363e-01  1.60182115182718e+00  1.99351977469949e+00
 O -9.21162413363385e-01  5.09111625018458e+00  3.65508783938665e+00    -5.15472515214713e-01  1.43695933468621e-01  1.51692447845878e-01
 H  5.45343497596363e+00 -1.94451510298044e-01  6.53603567123466e+00    -4.25793765772879e-01  2.42562089540211e+00  3.54498759071084e+00
 H  3.23643368078971e+00  5.98403339827411e+00  1.82005888380397e+00     2.22521495070042e+00 -3.93090757687038e+00 -2.71194266868675e+00
 O  3.62717819195521e+00  5.57365309195895e+00  9.86141010172146e-01     5.04212509765855e-01 -5.28712550434422e-02  2.32527959682790e-01
 H  1.47497736021233e+00  4.93644699058128e+00  7.19780323915778e+00     3.18471653795415e-01 -1.67268750393393e+00  4.50973083646540e+00
 H  5.61350224487925e+00  6.07330079710978e+00  6.58174499158786e+00     6.38692117756312e-01 -9.33722084431490e-01  2.17508572433894e-01
 O  6.24952215894864e+00  1.06998218609896e+00  9.53447278929100e-01     4.74344850135174e-01 -1.11925104489235e+00  8.40969386493257e-02
 H  5.51500737570803e+00  5.04744280515254e+00  3.90524637893707e+00     5.00456244355893e-02  1.07744783833650e+00  1.58344839853646e+00
 H  3.85345586545988e+00  9.61741279869359e+00  2.45590009295750e+00    -2.60640149975164e+00  2.42773584507071e-01  2.35286642086703e+00
 O  3.60274984230544e+00  3.58189708204768e+00  4.78469775420867e+00     3.35438446928430e-01  2.18680899331499e-01 -3.98537399599738e-01
 H  8.92751548685971e+00  7.35058836333956e+00  6.37353787068335e+00    -1.50913307726228e+00  1.38630861102535e+00 -1.66406265610381e+00
 H  7.55079577438630e+00  6.61385029517409e+00  6.55412884225170e+00    -9.50367608618990e-01 -9.96460164395001e-01 -3.52697825836651e+00
 O  4.24349997895356e+00  3.07163908557869e+00  1.28292655078607e+00    -1.74888161120755e-01  6.08925324552175e-02  2.24326325383449e-01
 H  1.05347929882840e+01  4.52192602353053e+00  5.29397172874952e+00     3.19780086460209e+00 -2.25010211605090e-01 -4.53567486374785e+00
 H  7.45013627511435e+00  4.84949542632183e+00 -1.91311036034690e-01     3.39838901505789e+00 -8.46579407800561e-01  8.07473948362392e-01
 O  8.59689078842374e+00  1.20991421769313e+00  1.45873727342472e+00    -8.84798127607271e-01  4.99126607868054e-01 -3.59960733849580e-01
 H  8.27306490840418e+00  9.09691251234957e+00  4.00304641456925e+00    -1.23930218612962e+00 -1.55084293687082e+00 -2.08206197807113e+00
 H  2.74089806545334e+00  5.82882061141896e+00  7.54168238464092e+00    -1.30787625672076e+00  9.84613172442110e-01 -1.22015205677938e+00
 O  7.26881539512208e+00  7.63764628840506e+00  2.84105025648390e+00    -8.56449532962750e-02  1.40586286781401e-01 -4.43401188622800e-01
 H  1.53423883734473e+00  2.92035931693203e+00  3.66032199946272e+00    -2.10574866822768e+00  1.31493724253958e+00 -6.20351721608411e-01
 H  8.00963113971193e+00  1.00139980027260e+00  5.46235013759156e+00     4.29700321570049e+00  1.65195535978154e+00 -1.46754123247691e+00
 O  6.40153027891430e+00  2.79219043691466e+00  5.72609787042855e+00    -1.49784360179015e-02  2.57198819402792e-01  2.68735484790488e-01
 H  4.58744663900075e+00  3.17875347608562e+00  8.49515650267375e+00    -1.60837098923461e+00 -1.16983389806414e-01  3.91026042592211e-02
 H  8.59270895295816e+00  2.78694455445079e+00  6.77143947255099e+00    -3.60443338816818e-01 -6.98286355421744e-01 -1.30995053600282e-01
 O  2.09897339427472e+00  2.36503799800735e+00  8.68522755587633e+00    -6.93970710390514e-01 -3.61111766178714e-01  5.98086314380421e-01
 H  4.54129343112683e+00  3.48400717984188e+00  4.54186302258644e+00     4.08342657610955e+00  1.68255126388526e+00  4.07702353575668e-01
 H  4.13190899838548e+00  1.26375856469733e+00  4.02081713673191e+00     4.11621050039379e-02 -2.62281667704396e+00 -1.72849743328658e+00
 O  8.36846934631487e+00  6.63952957252885e+00  6.09727225221719e+00    -1.79236278390002e-02  1.04678258716480e+00 -5.55967864656329e-01
 H  4.00532425992179e+00  4.62987555510886e+00  1.43284865974425e+00    -5.94433069423641e-02 -1.40308015319026e+00  2.26798052955841e+00
 H  8.52822920787701e+00  1.09267662388899e+00 -5.36487795341746e-01     3.71165260333913e-01  1.02791913798363e+00 -3.34169865853557e+00
 O  8.50801563483358e-01  6.78692901809328e+00  2.09587842315384e+00    -6.01281763636127e-01  2.21710235210126e-01  5.68286416840802e-01
 H  7.23469565498759e+00  2.37064291173133e+00  5.85832576759082e+00    -1.64643282973494e+00 -1.34743605598333e+00 -1.24749914030384e+00
 H  5.99648133333747e+00  1.75896099410876e+00  2.41434370756208e-01    -1.30817679687823e+00 -1.43623500995097e+00  1.32572168172600e+00
 O  5.63617089349547e+00  6.47274547173973e-01  7.42271130212433e+00     5.35550112896707e-01 -5.91506035960978e-01 -1.24516587335431e-01
 H  5.33890240380710e+00 -1.19490116743823e+00  2.75515983800359e-01     1.11208498831781e+00  1.27402324574401e+00 -2.60869485697517e+00
 H  3.33364498463311e+00  3.45191848252270e+00  1.56310013370209e+00    -7.16315698828342e-01  2.72472763479659e+00 -3.45256376032945e+00
 O  2.38810735400861e+00  5.83679472268061e+00  3.83078049301894e+00    -4.36815109000084e-01 -3.45190222657817e-01  9.16670651734352e-02
 H  1.15056427847611e+00  3.61261599308514e+00  2.08355129564515e+00     9.86024073814824e-01  1.24583098106407e+00 -1.14580776562641e+00
 H  3.43915223241940e+00  2.96389609683295e+00  5.48952423553183e+00    -1.91825562605886e-01  2.71495397455171e-01  1.70186955849048e-01
 O  5.13472473132302e+00  4.72168449247390e+00  3.07417012289005e+00     7.52360602115514e-01  5.39889789764213e-01 -9.33719594305096e-02
 H  4.34484821728337e+00  4.36478694204774e+00  7.31191731652206e+00     1.17386313847923e+00  2.09638777251293e-01  7.31406101206744e-01
 H  7.85350398240175e+00  2.97029212502580e+00  2.90751785271419e+00     8.82829306837019e-01  1.33119878053889e+00  2.61005137239978e+00
 O  5.82667639200896e+00  6.70800559106586e+00  2.19617643412017e-01    -7.55339121714053e-02 -1.56869313280154e+00 -1.09980459427082e+00
 H  4.89081288668042e-01  6.87903772383283e+00  8.77590481233618e+00    -2.41658213596095e+00  5.40582556098911e-01  2.23442383678239e+00
 H  2.28083093227090e+00  6.57619974102895e+00  4.38848255224082e+00     5.49817434981137e-01 -2.98057548317052e+00  8.45623743405417e-01
 O  3.49565462889773e+00  5.76725225131606e+00  6.77149677004698e+00     4.17655779950341e-01  4.15673084006967e-03  4.39803647853742e-01
 H  3.94979167913557e+00 -5.59492836189232e-01  2.06662448078931e+00     8.43610462058418e-01 -2.16496613567129e+00 -1.88757828105704e+00
 H  6.19898027156604e+00  5.98790255658507e+00 -1.50288075507625e-01    -1.29041155332324e+00 -1.22155019226124e+00  6.60646735157461e-01
 O  2.96992094539781e+00  9.62456320157805e+00  5.91167517592307e+00    -4.35786282833560e-01 -1.18793801604959e-02  3.37592638381488e-01
 H  4.74533199497888e-01  8.51685318809643e-01  2.25748222717820e+00    -4.87626666552956e-01 -1.62956172681716e+00  4.38920837394565e+00
 H  8.20605899687487e+00  4.02061580381918e+00  9.09789958799829e-01    -4.87749041471763e-01 -2.93251007253427e+00 -1.11215110497346e+00
 O  7.49926827888254e+00  3.88986217565444e+00  1.91818149174958e-02     1.43965627930015e-01  3.45887936488357e-01  1.84199127867350e-01
 H  2.53155315647399e+00  1.52553072251261e-01  2.75403541937429e+00     2.65401746280875e+00 -3.42307295381011e-02  2.19850262554997e+00
 H  7.02421473085493e+00  7.15340734114128e+00  2.14223156584095e+00    -5.35174884059487e+00  3.68460049296972e-01 -3.92788083307227e-01
 O  5.94232951819981e+00  5.09197285279741e+00  5.69275745833111e+00    -9.64333688245295e-01 -1.81273958544356e-01  1.98002839923573e-01
 H  2.15782799786887e+00  9.17190612772522e+00  6.19289346514675e+00    -4.31062564685982e+00 -3.90119264544679e-01 -2.67173083334027e+00
 H -1.67132665841988e+00  4.53072952244153e+00  3.29650795445696e+00     4.35958438528159e-01  3.32370454243223e-02  5.80267871753890e-01
 O  4.62502486868732e+00  3.49680001414871e+00  7.52654472957872e+00     6.48352142326161e-01 -2.66328996322148e-02 -9.72170002613359e-02
 H  6.41353117113111e+00  7.57550198268499e-02  7.81753761009576e+00     9.17558073340691e-01  4.03065862884991e+00 -5.82991466530934e-01
 H  7.46465648232439e+00  1.93044854559734e+00  2.17572437491018e+00     2.16094135549916e+00  1.99887336411759e+00 -6.61084121836164e-01
 O  4.69255915179977e+00  1.47487021597460e+00  3.23436701626690e+00    -2.49093722554064e-01  9.81767869792933e-01 -4.77955992308017e-01
 H -1.42885092005892e+00  5.03300513032201e+00  4.55816568197523e+00     1.65080201274473e+00  3.77477100362203e+00  1.09382920027285e+00
 H -1.43040905925012e-01  3.12284536875205e+00  5.28291891469104e+00     1.18518558414720e+00  3.04361791966804e+00  1.10632632473155e+00
 O  3.54353297152148e+00 -4.43394139464435e-02 -1.48616859545460e-02     3.28815319744908e-01  7.93333084680631e-02 -4.19105141015003e-01
 H  6.28777054696015e+00  4.19103682546555e-01  1.71959064789091e+00     2.71374778943047e+00 -4.03364652577780e-01  1.07108379450691e+00
 H  7.31615433459487e+00  1.39433783753499e+00  1.12291552033397e+00    -1.09912410643094e+00  8.18467390261182e-01  1.44371711528888e+00
 O  5.22078841392780e+00  7.72705926388855e+00  5.90754802295531e+00    -1.46916965919104e+00  5.13879854027768e-01 -2.36565335137549e-02
 H  6.49633986456863e+00 -8.37380602273114e-01  3.85334283890597e+00     6.18800024330555e-01  3.40578195115337e+00 -2.23684669111706e-03
 H  1.76284232266942e+00  7.88325486411532e+00  8.56108592654609e+00     4.18869413897204e+00  6.93188001532938e-01  4.49409455209508e-01
 O  1.73245509287924e+00  3.33019635782372e+00  2.78722657383406e+00     1.63614055665382e-01 -4.33631382279538e-01  8.34486857298056e-01
 H  3.07495617764474e+00  1.44396379047260e-01  9.39536672484433e+00     1.55032449973839e+00 -4.89268336343332e+00  1.02811706660743e+00
 H  4.75579376318441e+00  2.10708185543027e+00  2.57139346101866e+00     3.64142421844800e+00  4.11025863501916e+00 -5.02314874464219e+00
 O  1.02136544777717e+01  5.02288161966385e+00  5.98256574641830e+00    -9.61861762038161e-02 -5.04378998318675e-01  1.53368963006451e-02
 H  4.30467530243065e+00  2.51660474953992e-01 -4.99845799524614e-01     1.77872351896024e+00 -3.32056269922902e-01 -6.98810275452501e-01
 H  2.99842570083248e+00  5.39909834443267e+00  3.43119499206917e+00     2.82293178672335e+00 -5.26391403094334e-01  1.72069318351859e-01
 O  7.04315022531465e+00  2.82129693648226e+00  2.46002494095230e+00     2.22196030645914e-01 -2.57137762317783e-01 -4.58598121321480e-02
 H  5.18516981034205e+00  7.28166542220987e+00  4.81752612864608e+00     1.89727294441740e+00  5.99103185503880e-01  1.02330310417003e+00
 H  7.71511728096872e+00  7.19331119114742e+00  3.74752429038924e+00    -6.23416229422204e-02  3.73680991772265e-01  8.17715328091443e-01
