   96
 8.60913085937500e+00  8.60913090000000e+00  8.60913090000000e+00
 O  8.49651359064593e-01  7.40478982976044e+00  8.15998141713986e+00     7.40608987440943e-01 -2.70438576038071e-01  5.31631127794221e-01 
 H  1.14182968030481e+00  5.87869500003528e+00  2.41651993987122e+00     2.85968239092501e+00 -3.17291647120753e-01  1.32412300923991e+00 
 H  1.83475834637005e+00  4.47395632369278e+00  8.69549025980208e+00    -1.99103680937914e+00  6.46306851052283e-01  6.26406094654033e-01 
 O  7.59196665089105e+00  8.92687388403083e+00  4.87339650322141e+00     3.36316728507395e-01  4.38471935252502e-01  1.45779833887774e-01 
 H  1.45215578924248e+00  2.91866699345366e+00  7.98518062983055e+00    -1.33787754399501e+00 -4.56343710039280e-01 -2.31489765272653e+00 
 H  9.19022483219761e+00  6.12960172206315e+00  5.71484643256984e+00     3.37985466264491e+00 -3.13046611809195e+00 -4.04388868080492e+00 
 O  3.44212947360752e+00  8.62495673152511e+00  2.54976294495584e+00     5.25026329014813e-01 -1.03140709373144e+00 -7.15833836472320e-01 
 H  2.01365094668079e+00  1.47078952045248e+00  8.47544300289695e+00     1.53872745853224e+00  8.25067743358662e-01  2.16145830857301e+00 
 H  4.00540060353011e+00  6.58589992182587e+00  7.24340619663718e+00    -1.98701023915623e+00 -2.20401234372765e-01 -2.07021068237737e-01 
 O  1.07427721534027e-01  2.84653950404746e+00  4.35508529910669e+00    -3.69934132088648e-01  4.20424479953462e-01  1.86857381025311e-01 
 H  4.77542964360990e+00  2.90297432805084e+00  6.83361998430228e+00    -3.76448924688827e+00  5.38816313711372e-01 -1.59184865114987e+00 
 H  3.86796333737708e+00  9.01850397393105e+00  5.96063961583029e+00     1.80112146058580e+00  1.14411688946872e+00  1.38433927136607e+00 
 O  1.31121865019703e+00  5.00012444430772e+00  8.29659284983754e+00    -7.27306378978287e-01 -3.15556252032387e-01  3.32893105926157e-01 
 H  3.85147676218855e+00  4.20502824213223e+00  3.75159678187387e+00    -2.31637376234198e+00 -1.48992581330580e+00 -1.53908959489420e+00 
 H  1.56749611728890e+00  7.28873877588122e+00  1.49969606046693e+00     9.30699150199459e-01  2.61154421339828e+00 -1.13138286145465e+00 
 O  8.76241553603674e+00  1.97561652301668e+00  7.38252555910012e+00     4.11516423360872e-01  7.36802185554867e-01 -1.63920294535383e-01 
 H -7.00430179940899e-01  3.05176345346479e+00 -4.36868856873430e-01     1.43871800369583e-01 -2.41959999359978e+00  1.71652316676518e+00 
 H  6.21681750117048e+00  3.80251903438672e+00  6.03984404199284e+00     1.03935576039175e-01  1.60180068875369e+00  1.99353089211921e+00 
 O -9.21162345745125e-01  5.09111959919619e+00  3.65509083425023e+00    -5.15483317268135e-01  1.43714750985818e-01  1.51696311693205e-01 
 H  5.45342427626422e+00 -1.94476265446803e-01  6.53601402174423e+00    -4.26113238533423e-01  2.42485771782341e+00  3.54453663291501e+00 
 H  3.23642108772679e+00  5.98399758758108e+00  1.82009114852525e+00     2.22527206257828e+00 -3.93089140045218e+00 -2.71196720512723e+00 
 O  3.62718864535537e+00  5.57367100724953e+00  9.86146907810175e-01     5.04239747420411e-01 -5.28250305037436e-02  2.32559381326050e-01 
 H  1.47498220152913e+00  4.93643612281792e+00  7.19782700932949e+00     3.18433990166755e-01 -1.67257711598010e+00  4.50998240409892e+00 
 H  5.61359820621685e+00  6.07333216710543e+00  6.58173711905921e+00     6.38812377094991e-01 -9.33621853456501e-01  2.17483889623033e-01 
 O  6.24952664427873e+00  1.06998502464544e+00  9.53452177247806e-01     4.74363194148661e-01 -1.11923502881104e+00  8.41071340503953e-02 
 H  5.51499318600024e+00  5.04743594008322e+00  3.90525491662326e+00     5.00445837939362e-02  1.07739068235639e+00  1.58347226963279e+00 
 H  3.85344961032409e+00  9.61734180643684e+00  2.45582651043034e+00    -2.60655850127422e+00  2.43511566450978e-01  2.35128886452517e+00 
 O  3.60275512321586e+00  3.58189875703304e+00  4.78469269945171e+00     3.35493189347944e-01  2.18741772153244e-01 -3.98652489764394e-01 
 H  8.92755933838361e+00  7.35061291814019e+00  6.37344629156166e+00    -1.50901307825557e+00  1.38700666881666e+00 -1.66431417604628e+00 
 H  7.55081679496325e+00  6.61390089595019e+00  6.55415453202247e+00    -9.50697533920094e-01 -9.96387654674049e-01 -3.52663507436571e+00 
 O  4.24350264257279e+00  3.07164943303787e+00  1.28290095865438e+00    -1.74784544221818e-01  6.09767945459905e-02  2.24103872179260e-01 
 H  1.05347471534935e+01  4.52194665651553e+00  5.29395398729538e+00     3.19743597323761e+00 -2.24616003454998e-01 -4.53573015119944e+00 
 H  7.45014266001774e+00  4.84949982671370e+00 -1.91312445329842e-01     3.39841479770611e+00 -8.46580137270265e-01  8.07504740256536e-01 
 O  8.59688774101527e+00  1.20991482690733e+00  1.45874154579967e+00    -8.84780543560574e-01  4.99121317377881e-01 -3.59921156028508e-01 
 H  8.27304377065924e+00  9.09696656670766e+00  4.00303557748353e+00    -1.23925376481078e+00 -1.55069053090172e+00 -2.08213660035988e+00 
 H  2.74092943345514e+00  5.82881557726303e+00  7.54172233611730e+00    -1.30788119877147e+00  9.84414678786854e-01 -1.21991779280548e+00 
 O  7.26881754552840e+00  7.63764266596767e+00  2.84105270618332e+00    -8.56357649231137e-02  1.40570948500207e-01 -4.43384403755716e-01 
 H  1.53424981757281e+00  2.92035243046194e+00  3.66031549232002e+00    -2.10578067420747e+00  1.31486610331626e+00 -6.20176117631682e-01 
 H  8.00962804952178e+00  1.00139640110161e+00  5.46236279529219e+00     4.29707755852651e+00  1.65198035166396e+00 -1.46746874213708e+00 
 O  6.40153113526922e+00  2.79218909188317e+00  5.72609878436402e+00    -1.49730561017066e-02  2.57182593946323e-01  2.68737386759237e-01 
 H  4.58743479243143e+00  3.17875960887335e+00  8.49517575936312e+00    -1.60864945822730e+00 -1.16868460728024e-01  3.91708594576568e-02 
 H  8.59270437075101e+00  2.78694838613769e+00  6.77143353849012e+00    -3.60490912799121e-01 -6.98548610989190e-01 -1.30949639185168e-01 
 O  2.09897119305177e+00  2.36504245001087e+00  8.68522774714953e+00    -6.94014538263301e-01 -3.61109202942802e-01  5.98038345736860e-01 
 H  4.54130848966097e+00  3.48399519367697e+00  4.54188342961840e+00     4.08374270275509e+00  1.68247372519166e+00  4.08007646752320e-01 
 H  4.13188310891421e+00  1.26376810969894e+00  4.02080300549645e+00     4.06427674459894e-02 -2.62281365157034e+00 -1.72786144558116e+00 
 O  8.36847310354981e+00  6.63952998367358e+00  6.09727624689140e+00    -1.78678767143420e-02  1.04676434965818e+00 -5.56006901936186e-01 
 H  4.00530177672353e+00  4.62983775555155e+00  1.43280168285723e+00    -5.95603406692880e-02 -1.40303492794204e+00  2.26766578509123e+00 
 H  8.52822073345705e+00  1.09269393872716e+00 -5.36483532246395e-01     3.71308417472741e-01  1.02857624330630e+00 -3.34217349183227e+00 
 O  8.50802834040260e-01  6.78692742579128e+00  2.09587906398262e+00    -6.01270501846528e-01  2.21708089105020e-01  5.68290590169016e-01 
 H  7.23470407701331e+00  2.37064124408878e+00  5.85830518307258e+00    -1.64640568482640e+00 -1.34746481843367e+00 -1.24765840643176e+00 
 H  5.99647371040999e+00  1.75895467238745e+00  2.41431207390450e-01    -1.30827033434759e+00 -1.43627041349639e+00  1.32573936990733e+00 
 O  5.63617009365173e+00  6.47273993347006e-01  7.42271381739413e+00     5.35552526271933e-01 -5.91509708323142e-01 -1.24520669001536e-01 
 H  5.33888646012461e+00 -1.19491088712662e+00  2.75524664593834e-01     1.11160981002919e+00  1.27430520333422e+00 -2.60850535833620e+00 
 H  3.33371848176582e+00  3.45192652320490e+00  1.56325988537370e+00    -7.17019553723978e-01  2.72485128729726e+00 -3.45118957269220e+00 
 O  2.38811624089691e+00  5.83678802343492e+00  3.83077650720952e+00    -4.36733404209549e-01 -3.45306311301075e-01  9.15682824290245e-02 
 H  1.15056728318199e+00  3.61263280497107e+00  2.08355430907867e+00     9.86039230518104e-01  1.24593219974782e+00 -1.14590370952423e+00 
 H  3.43913446468568e+00  2.96390481179959e+00  5.48952904217160e+00    -1.91834938866778e-01  2.71623101294527e-01  1.70263692369890e-01 
 O  5.13471516147521e+00  4.72169279547032e+00  3.07417340432262e+00     7.52346582660983e-01  5.39929390612884e-01 -9.33845780141757e-02 
 H  4.34484643639134e+00  4.36478531961320e+00  7.31191547950551e+00     1.17381779537158e+00  2.09672355864412e-01  7.31442516071771e-01 
 H  7.85351307397408e+00  2.97026594045460e+00  2.90751337122226e+00     8.83123068341531e-01  1.33104484452497e+00  2.61023169597740e+00 
 O  5.82667780225798e+00  6.70800529868306e+00  2.19617853727928e-01    -7.54844870069828e-02 -1.56871580105109e+00 -1.09980872123173e+00 
 H  4.89062332429257e-01  6.87905928747579e+00  8.77593768872936e+00    -2.41703838932623e+00  5.40266279416082e-01  2.23494322474863e+00 
 H  2.28081743495619e+00  6.57620904191289e+00  4.38846233430336e+00     5.49761179645527e-01 -2.98069205997286e+00  8.45632384552531e-01 
 O  3.49564831695320e+00  5.76725257180277e+00  6.77149832708002e+00     4.17630811680681e-01  4.15692605110543e-03  4.39829415955700e-01 
 H  3.94972416404373e+00 -5.59478820154723e-01  2.06648539445150e+00     8.42421974824679e-01 -2.16496803418711e+00 -1.88810846684178e+00 
 H  6.19897127493849e+00  5.98789400238919e+00 -1.50282613113773e-01    -1.29045594518180e+00 -1.22157145428853e+00  6.60654747063656e-01 
 O  2.96992329548836e+00  9.62455993743241e+00  5.91167521297621e+00    -4.35785788231699e-01 -1.18852841168533e-02  3.37586754501878e-01 
 H  4.74517517672198e-01  8.51665954249198e-01  2.25748271016202e+00    -4.87742722616807e-01 -1.62963320502497e+00  4.38908149444415e+00 
 H  8.20603905681762e+00  4.02061795189278e+00  9.09800339714816e-01    -4.87823213755365e-01 -2.93244639118133e+00 -1.11215906921156e+00 
 O  7.49926628653686e+00  3.88986443594756e+00  1.91820963468826e-02     1.43962944776024e-01  3.45892520042782e-01  1.84195698946362e-01 
 H  2.53154807193820e+00  1.52556346290871e-01  2.75403606559627e+00     2.65392860045111e+00 -3.42812353417225e-02  2.19844312852929e+00 
 H  7.02420502325620e+00  7.15343083938990e+00  2.14221411315776e+00    -5.35184960300698e+00  3.68523309059256e-01 -3.93020613681798e-01 
 O  5.94232083797053e+00  5.09197449893358e+00  5.69275010532779e+00    -9.64339614777389e-01 -1.81259460870527e-01  1.97984768357881e-01 
 H  2.15782917708809e+00  9.17190603799617e+00  6.19289353726327e+00    -4.31058713506931e+00 -3.90093826355242e-01 -2.67175085884090e+00 
 H -1.67131577347506e+00  4.53071911508014e+00  3.29649879894007e+00     4.35772069144805e-01  3.32444483903973e-02  5.80242070816823e-01 
 O  4.62502513242930e+00  3.49679832691365e+00  7.52654439876289e+00     6.48349111065573e-01 -2.66381057728040e-02 -9.71945396886433e-02 
 H  6.41353177153850e+00  7.57483125991762e-02  7.81753043978364e+00     9.17502748693376e-01  4.03064005658280e+00 -5.82955692881782e-01 
 H  7.46467631421487e+00  1.93050565581643e+00  2.17563877808852e+00     2.16122851245455e+00  1.99928691925338e+00 -6.60628136655531e-01 
 O  4.69257057819384e+00  1.47484887578398e+00  3.23440753136104e+00    -2.48759057837198e-01  9.81104875909216e-01 -4.77302933912088e-01 
 H -1.42887949686035e+00  5.03304246969844e+00  4.55815549914262e+00     1.65074339154803e+00  3.77487406174709e+00  1.09379378030940e+00 
 H -1.43053635866949e-01  3.12290798629335e+00  5.28290558301583e+00     1.18508286550785e+00  3.04377702478225e+00  1.10614428822347e+00 
 O  3.54353367305840e+00 -4.43389779195899e-02 -1.48590736142366e-02     3.28822125141220e-01  7.93352263000665e-02 -4.19077116575968e-01 
 H  6.28777886803671e+00  4.19097994675756e-01  1.71958945554879e+00     2.71373759085275e+00 -4.03402360322457e-01  1.07108601885896e+00 
 H  7.31612654954753e+00  1.39432953494823e+00  1.12289013362411e+00    -1.09953386004357e+00  8.18051950345421e-01  1.44298158381081e+00 
 O  5.22079331844296e+00  7.72704911832319e+00  5.90754897549352e+00    -1.46912969920985e+00  5.13910779811558e-01 -2.36170702778598e-02 
 H  6.49635392107502e+00 -8.37349355288290e-01  3.85336471548803e+00     6.18807349249821e-01  3.40609885373593e+00 -2.07577096435233e-03 
 H  1.76284605553037e+00  7.88326623831423e+00  8.56109103926272e+00     4.18859656004836e+00  6.93236813015529e-01  4.49333327077107e-01 
 O  1.73245511052084e+00  3.33019183952116e+00  2.78722516073395e+00     1.63620288718593e-01 -4.33660205416273e-01  8.34474181411449e-01 
 H  3.07496126629304e+00  1.44393566261573e-01  9.39537497061466e+00     1.55034687214627e+00 -4.89271189705846e+00  1.02800027708633e+00 
 H  4.75563280556048e+00  2.10748534464185e+00  2.57117586323026e+00     3.63738670603244e+00  4.12181992981129e+00 -5.02993721693624e+00 
 O  1.02136488994697e+01  5.02288057053009e+00  5.98256638393537e+00    -9.61937939104421e-02 -5.04384602750697e-01  1.53439199534970e-02 
 H  4.30467327148185e+00  2.51660367886181e-01 -4.99850242809256e-01     1.77866731493503e+00 -3.32056814531575e-01 -6.98813288087226e-01 
 H  2.99856071289623e+00  5.39923318201923e+00  3.43125084132777e+00     2.82314014313688e+00 -5.23974376564875e-01  1.73128192801392e-01 
 O  7.04314714565710e+00  2.82129368513834e+00  2.46002386282820e+00     2.22177108527524e-01 -2.57130369229537e-01 -4.58788965221588e-02 
 H  5.18517214252453e+00  7.28166982623729e+00  4.81751594280895e+00     1.89723417652785e+00  5.99021786156883e-01  1.02325396099517e+00 
 H  7.71508874894042e+00  7.19324212029723e+00  3.74750358621188e+00    -6.23149433820954e-02  3.73220228168493e-01  8.17601930310168e-01 
