   96
 8.60913090000000e+00  8.60913090000000e+00  8.60913090000000e+00
 O  8.49648041587053e-01  7.40478773716730e+00  8.15997548868335e+00     7.40565258924049e-01 -2.70463796453782e-01  5.31610546883939e-01
 H  1.14180906748587e+00  5.87869259515891e+00  2.41651685373829e+00     2.85959999703719e+00 -3.17393301777214e-01  1.32411118550636e+00
 H  1.83481399584245e+00  4.47396712622998e+00  8.69548048115005e+00    -1.99589674373697e+00  6.50584584478732e-01  6.22696648524124e-01
 O  7.59196391311490e+00  8.92686778235045e+00  4.87339849932304e+00     3.36333829897266e-01  4.38454980792880e-01  1.45786776361348e-01
 H  1.45225189705041e+00  2.91886730810098e+00  7.98525674406883e+00    -1.33740089175963e+00 -4.54859686290251e-01 -2.31458432650050e+00
 H  9.19025168617058e+00  6.12964299229117e+00  5.71480528827638e+00     3.38022647896348e+00 -3.12980781162574e+00 -4.04431199011713e+00
 O  3.44213706400859e+00  8.62496675962305e+00  2.54977060080866e+00     5.25076980040681e-01 -1.03122844397377e+00 -7.15799404839062e-01
 H  2.01361613116730e+00  1.47079380546763e+00  8.47545429884042e+00     1.53844567788381e+00  8.24905335111511e-01  2.16119941285527e+00
 H  4.00540245585697e+00  6.58590025336979e+00  7.24340415452434e+00    -1.98705581840475e+00 -2.20417022243984e-01 -2.06885077887948e-01
 O  1.07424445691387e-01  2.84654143792243e+00  4.35507938653855e+00    -3.69931553396974e-01  4.20459909287632e-01  1.86829789075127e-01
 H  4.77542717132172e+00  2.90297501352741e+00  6.83361967023148e+00    -3.76452954730848e+00  5.38847221307184e-01 -1.59180727372786e+00
 H  3.86796112507091e+00  9.01850727581282e+00  5.96064696338341e+00     1.80107020094999e+00  1.14419277739326e+00  1.38437189067124e+00
 O  1.31121881489971e+00  5.00012809953421e+00  8.29660140838772e+00    -7.27020463816425e-01 -3.15845579673399e-01  3.33157829575893e-01
 H  3.85158316793072e+00  4.20514598441794e+00  3.75145374815662e+00    -2.31460038046368e+00 -1.48843309986190e+00 -1.54145751423597e+00
 H  1.56746990739428e+00  7.28879699164173e+00  1.49971457923308e+00     9.30513681966552e-01  2.61188482865286e+00 -1.13118861248377e+00
 O  8.76241529760149e+00  1.97562007545996e+00  7.38253254154210e+00     4.11515881575407e-01  7.36816847072877e-01 -1.63918715953919e-01
 H -7.00420082837313e-01  3.05175973214460e+00 -4.36857343771083e-01     1.43963362949309e-01 -2.41957540909819e+00  1.71662478073780e+00
 H  6.21682244640783e+00  3.80251907145008e+00  6.03984117129146e+00     1.03933371077184e-01  1.60182115181770e+00  1.99351977471124e+00
 O -9.21162413363304e-01  5.09111625018469e+00  3.65508783938830e+00    -5.15472515218960e-01  1.43695933472472e-01  1.51692447846798e-01
 H  5.45343497595880e+00 -1.94451510314142e-01  6.53603567122055e+00    -4.25793765941113e-01  2.42562089497835e+00  3.54498759041250e+00
 H  3.23643368079088e+00  5.98403339826905e+00  1.82005888380751e+00     2.22521495072613e+00 -3.93090757687155e+00 -2.71194266870099e+00
 O  3.62717819195890e+00  5.57365309196350e+00  9.86141010173774e-01     5.04212509774709e-01 -5.28712550279054e-02  2.32527959690643e-01
 H  1.47497736021527e+00  4.93644699057727e+00  7.19780323916120e+00     3.18471653806331e-01 -1.67268750392090e+00  4.50973083649616e+00
 H  5.61350224496359e+00  6.07330079713925e+00  6.58174499158247e+00     6.38692117853775e-01 -9.33722084316916e-01  2.17508572423080e-01
 O  6.24952215894899e+00  1.06998218609912e+00  9.53447278928969e-01     4.74344850136634e-01 -1.11925104489096e+00  8.40969386496469e-02
 H  5.51500737569112e+00  5.04744280515240e+00  3.90524637894513e+00     5.00456243624691e-02  1.07744783833128e+00  1.58344839855581e+00
 H  3.85345586546157e+00  9.61741279869367e+00  2.45590009295493e+00    -2.60640149976609e+00  2.42773584541368e-01  2.35286642083320e+00
 O  3.60274984230596e+00  3.58189708204822e+00  4.78469775420747e+00     3.35438446935020e-01  2.18680899343440e-01 -3.98537399620389e-01
 H  8.92751548689310e+00  7.35058836334764e+00  6.37353787063030e+00    -1.50913307718880e+00  1.38630861153412e+00 -1.66406265618526e+00
 H  7.55079577439415e+00  6.61385029522788e+00  6.55412884226446e+00    -9.50367608800457e-01 -9.96460164260369e-01 -3.52697825817793e+00
 O  4.24349997895311e+00  3.07163908557831e+00  1.28292655078639e+00    -1.74888161124401e-01  6.08925324558528e-02  2.24326325386808e-01
 H  1.05347929882759e+01  4.52192602353669e+00  5.29397172874824e+00     3.19780086456187e+00 -2.25010211522049e-01 -4.53567486370679e+00
 H  7.45013627512213e+00  4.84949542632366e+00 -1.91311036037920e-01     3.39838901508719e+00 -8.46579407817063e-01  8.07473948356033e-01
 O  8.59689078842315e+00  1.20991421769309e+00  1.45873727342481e+00    -8.84798127607154e-01  4.99126607866171e-01 -3.59960733847217e-01
 H  8.27306490840215e+00  9.09691251235167e+00  4.00304641456776e+00    -1.23930218612781e+00 -1.55084293686403e+00 -2.08206197807878e+00
 H  2.74089806545965e+00  5.82882061141225e+00  7.54168238465134e+00    -1.30787625674043e+00  9.84613172340551e-01 -1.22015205672948e+00
 O  7.26881539512257e+00  7.63764628840394e+00  2.84105025648453e+00    -8.56449532939931e-02  1.40586286774734e-01 -4.43401188619529e-01
 H  1.53423883734599e+00  2.92035931693043e+00  3.66032199946132e+00    -2.10574866822734e+00  1.31493724253466e+00 -6.20351721578706e-01
 H  8.00963113971077e+00  1.00139980027345e+00  5.46235013759268e+00     4.29700321571630e+00  1.65195535979760e+00 -1.46754123247268e+00
 O  6.40153027891493e+00  2.79219043691391e+00  5.72609787042875e+00    -1.49784360146707e-02  2.57198819396712e-01  2.68735484791422e-01
 H  4.58744663900193e+00  3.17875347608746e+00  8.49515650267383e+00    -1.60837098925031e+00 -1.16983389811083e-01  3.91026042691586e-02
 H  8.59270895295753e+00  2.78694455445254e+00  6.77143947255136e+00    -3.60443338830655e-01 -6.98286355469679e-01 -1.30995053620019e-01
 O  2.09897339427372e+00  2.36503799800893e+00  8.68522755587657e+00    -6.93970710400229e-01 -3.61111766177296e-01  5.98086314371088e-01
 H  4.54129343112803e+00  3.48400717983992e+00  4.54186302258616e+00     4.08342657614819e+00  1.68255126385881e+00  4.07702353581302e-01
 H  4.13190899838287e+00  1.26375856469818e+00  4.02081713672993e+00     4.11621049977278e-02 -2.62281667703419e+00 -1.72849743329454e+00
 O  8.36846934631625e+00  6.63952957253058e+00  6.09727225222085e+00    -1.79236278035552e-02  1.04678258715483e+00 -5.55967864676549e-01
 H  4.00532425991869e+00  4.62987555510691e+00  1.43284865974039e+00    -5.94433069521550e-02 -1.40308015316456e+00  2.26798052953352e+00
 H  8.52822920787624e+00  1.09267662388938e+00 -5.36487795340756e-01     3.71165260347093e-01  1.02791913805661e+00 -3.34169865858238e+00
 O  8.50801563483236e-01  6.78692901809331e+00  2.09587842315388e+00    -6.01281763635892e-01  2.21710235211155e-01  5.68286416842620e-01
 H  7.23469565498859e+00  2.37064291173067e+00  5.85832576758924e+00    -1.64643282972855e+00 -1.34743605598730e+00 -1.24749914031147e+00
 H  5.99648133333957e+00  1.75896099411289e+00  2.41434370758929e-01    -1.30817679688024e+00 -1.43623500993657e+00  1.32572168173942e+00
 O  5.63617089349528e+00  6.47274547172701e-01  7.42271130212314e+00     5.35550112896020e-01 -5.91506035970668e-01 -1.24516587346956e-01
 H  5.33890240380396e+00 -1.19490116744001e+00  2.75515983801954e-01     1.11208498824759e+00  1.27402324576982e+00 -2.60869485695359e+00
 H  3.33364498463270e+00  3.45191848252494e+00  1.56310013370076e+00    -7.16315698843852e-01  2.72472763480069e+00 -3.45256376035544e+00
 O  2.38810735400921e+00  5.83679472268028e+00  3.83078049301813e+00    -4.36815108993232e-01 -3.45190222668821e-01  9.16670651642144e-02
 H  1.15056427847599e+00  3.61261599309164e+00  2.08355129564798e+00     9.86024073806190e-01  1.24583098108973e+00 -1.14580776564170e+00
 H  3.43915223241969e+00  2.96389609683356e+00  5.48952423553153e+00    -1.91825562603873e-01  2.71495397473237e-01  1.70186955853847e-01
 O  5.13472473132365e+00  4.72168449247448e+00  3.07417012289045e+00     7.52360602125363e-01  5.39889789766389e-01 -9.33719594346016e-02
 H  4.34484821728645e+00  4.36478694204893e+00  7.31191731651897e+00     1.17386313851870e+00  2.09638777268190e-01  7.31406101197880e-01
 H  7.85350398240254e+00  2.97029212502598e+00  2.90751785271385e+00     8.82829306858059e-01  1.33119878053840e+00  2.61005137240419e+00
 O  5.82667639200909e+00  6.70800559106582e+00  2.19617643412047e-01    -7.55339121631113e-02 -1.56869313280487e+00 -1.09980459427252e+00
 H  4.89081288665703e-01  6.87903772383732e+00  8.77590481234074e+00    -2.41658213604725e+00  5.40582556055843e-01  2.23442383686364e+00
 H  2.28083093227032e+00  6.57619974102818e+00  4.38848255224114e+00     5.49817434991098e-01 -2.98057548318267e+00  8.45623743400723e-01
 O  3.49565462889522e+00  5.76725225131593e+00  6.77149677004801e+00     4.17655779933978e-01  4.15673083844872e-03  4.39803647868282e-01
 H  3.94979167913381e+00 -5.59492836189790e-01  2.06662448078624e+00     8.43610462031348e-01 -2.16496613567338e+00 -1.88757828106774e+00
 H  6.19898027156163e+00  5.98790255658033e+00 -1.50288075504274e-01    -1.29041155335377e+00 -1.22155019227389e+00  6.60646735158081e-01
 O  2.96992094539786e+00  9.62456320157778e+00  5.91167517592306e+00    -4.35786282832932e-01 -1.18793801619595e-02  3.37592638381806e-01
 H  4.74533199496076e-01  8.51685318809448e-01  2.25748222717895e+00    -4.87626666560774e-01 -1.62956172681410e+00  4.38920837393271e+00
 H  8.20605899686756e+00  4.02061580381843e+00  9.09789958804811e-01    -4.87749041497511e-01 -2.93251007252684e+00 -1.11215110496456e+00
 O  7.49926827888178e+00  3.88986217565537e+00  1.91818149174990e-02     1.43965627927121e-01  3.45887936493526e-01  1.84199127867686e-01
 H  2.53155315647356e+00  1.52553072251700e-01  2.75403541937371e+00     2.65401746279281e+00 -3.42307295415453e-02  2.19850262553975e+00
 H  7.02421473085678e+00  7.15340734114679e+00  2.14223156583641e+00    -5.35174884059370e+00  3.68460049332551e-01 -3.92788083343225e-01
 O  5.94232951819291e+00  5.09197285279924e+00  5.69275745832495e+00    -9.64333688248514e-01 -1.81273958540371e-01  1.98002839905373e-01
 H  2.15782799786961e+00  9.17190612772361e+00  6.19289346514624e+00    -4.31062564685271e+00 -3.90119264554728e-01 -2.67173083334398e+00
 H -1.67132665841855e+00  4.53072952244224e+00  3.29650795445228e+00     4.35958438504910e-01  3.32370454487058e-02  5.80267871744327e-01
 O  4.62502486868720e+00  3.49680001414856e+00  7.52654472957841e+00     6.48352142323431e-01 -2.66328996254227e-02 -9.72170002639402e-02
 H  6.41353117113019e+00  7.57550198244788e-02  7.81753761009719e+00     9.17558073315872e-01  4.03065862884642e+00 -5.82991466523220e-01
 H  7.46465648232406e+00  1.93044854559832e+00  2.17572437491059e+00     2.16094135550457e+00  1.99887336411902e+00 -6.61084121810601e-01
 O  4.69255915180030e+00  1.47487021597563e+00  3.23436701626684e+00    -2.49093722550074e-01  9.81767869804271e-01 -4.77955992309646e-01
 H -1.42885092006935e+00  5.03300513033228e+00  4.55816568197116e+00     1.65080201276432e+00  3.77477100363645e+00  1.09382920029865e+00
 H -1.43040905927216e-01  3.12284536875465e+00  5.28291891469004e+00     1.18518558412829e+00  3.04361791968602e+00  1.10632632472172e+00
 O  3.54353297152099e+00 -4.43394139464474e-02 -1.48616859545872e-02     3.28815319742290e-01  7.93333084684690e-02 -4.19105141012028e-01
 H  6.28777054695948e+00  4.19103682547922e-01  1.71959064789195e+00     2.71374778942608e+00 -4.03364652585067e-01  1.07108379449567e+00
 H  7.31615433459297e+00  1.39433783753527e+00  1.12291552033511e+00    -1.09912410644607e+00  8.18467390249463e-01  1.44371711524962e+00
 O  5.22078841393155e+00  7.72705926387891e+00  5.90754802295680e+00    -1.46916965916728e+00  5.13879854041781e-01 -2.36565334823527e-02
 H  6.49633986456640e+00 -8.37380602272311e-01  3.85334283890646e+00     6.18800024309917e-01  3.40578195119816e+00 -2.23684667584806e-03
 H  1.76284232267455e+00  7.88325486411752e+00  8.56108592654820e+00     4.18869413897095e+00  6.93188001540241e-01  4.49409455198238e-01
 O  1.73245509287927e+00  3.33019635782346e+00  2.78722657383397e+00     1.63614055666128e-01 -4.33631382282330e-01  8.34486857297592e-01
 H  3.07495617764813e+00  1.44396379043237e-01  9.39536672484866e+00     1.55032449976598e+00 -4.89268336347389e+00  1.02811706659538e+00
 H  4.75579376318154e+00  2.10708185542504e+00  2.57139346101946e+00     3.64142421844530e+00  4.11025863489900e+00 -5.02314874459316e+00
 O  1.02136544777683e+01  5.02288161966620e+00  5.98256574641781e+00    -9.61861762176278e-02 -5.04378998310267e-01  1.53368963023953e-02
 H  4.30467530242997e+00  2.51660474952726e-01 -4.99845799526676e-01     1.77872351896868e+00 -3.32056269927626e-01 -6.98810275463996e-01
 H  2.99842570084158e+00  5.39909834444349e+00  3.43119499207072e+00     2.82293178671948e+00 -5.26391402883020e-01  1.72069318435980e-01
 O  7.04315022531467e+00  2.82129693648263e+00  2.46002494095222e+00     2.22196030645221e-01 -2.57137762315132e-01 -4.58598121326913e-02
 H  5.18516981034845e+00  7.28166542221621e+00  4.81752612863773e+00     1.89727294438738e+00  5.99103185434993e-01  1.02330310416387e+00
 H  7.71511728096037e+00  7.19331119113195e+00  3.74752429038540e+00    -6.23416229518659e-02  3.73680991683242e-01  8.17715328059816e-01
