   96
 8.60913090000000e+00  8.60913090000000e+00  8.60913090000000e+00
 O  1.46743907108763e+00  5.97506149597455e+00  7.72764782591139e+00     8.58774132301972e-01  1.79954921229001e-02  1.10178247767800e+00
 H  1.77532694133637e+00  6.86599648543385e+00  6.74973046117001e-01     1.05499955093322e+00 -2.03599512869697e+00 -1.80966712598978e+00
 H  2.08369535481672e+00  5.51182869960298e+00  7.61231755412574e+00    -1.51363484288105e+00 -2.47439746936581e-01  3.00132055198142e+00
 O  8.67342762824873e+00  8.50757665054808e+00  6.19165328171948e+00    -2.51117621118233e-02  1.27065993332447e-02  5.44747978928260e-01
 H  1.93308159501188e+00  4.44379395917496e+00  6.59513593498233e+00     2.84031328514458e+00  1.64651185839730e+00  8.38101486203616e-01
 H  7.15615713895194e+00  6.84448592226171e+00  4.93054628311558e+00     4.19124515032739e-01 -6.23286100642570e-02 -2.98277330795238e-01
 O  8.48500042702133e-01  8.91751528699492e+00  2.89289675341229e+00     8.52228927404500e-02  4.67597959318408e-01  1.38703128237115e-02
 H  1.65955464553066e+00  1.33608711996794e+00  7.73715860362480e+00     6.92777931214779e-01  6.10475709447348e-01 -1.24284193712396e+00
 H  2.78581561022772e+00  5.49988929774280e+00  6.67536464462179e+00    -6.05728001775233e-01 -1.62300567104220e-01  4.13381290425571e+00
 O  9.06423479444327e-01  2.03289293077233e+00  4.49243715332265e+00     2.60826931635813e-01  2.19491403860695e-01  2.36947867934030e-02
 H  5.02537745577679e+00  3.86838121390658e+00  8.35989244331996e+00    -1.81074417006224e+00 -3.85805642925390e-01 -6.02733950682650e-01
 H  3.13314225799882e+00  1.00780211794696e+01  6.79100200182790e+00    -2.37555244878140e+00  1.93345186689646e+00  2.88830495499518e+00
 O  2.14439163378461e+00  5.13258403551667e+00  6.83474372583489e+00    -4.87803388687019e-01  8.84681505818929e-01  1.18004657870685e+00
 H  4.29235343908968e+00  2.76841350099355e+00  4.29909211679846e+00    -9.05100888247799e-01  2.35415878139072e+00 -2.13555469389857e+00
 H  4.18299538076496e-01  6.87940246592131e+00  4.96651501799656e-01     1.41615296715453e-01 -4.41634552889508e-01 -4.89932930103453e+00
 O  7.71489465956137e+00  8.93015560473497e-01  7.86075272366028e+00    -2.06734336189233e-01  1.66281348829305e-01 -4.74285957407061e-01
 H  2.78141304428864e-01  4.09414462277009e+00  3.40947662064633e-01    -3.33750470082138e+00 -1.84342197471754e+00  2.25972000278124e+00
 H  6.38293807238714e+00  3.72799572693419e+00  6.06414355082922e+00     7.16748404067540e-01 -6.10565595294457e-01  7.99404288645064e-01
 O  1.57773225145710e+00  5.51162739893530e+00  3.69840896132727e+00     2.94007684687913e-01 -1.45741998213714e-01  2.74762096559660e-02
 H  5.52628483510954e+00  6.32516942410586e-01  5.51565098838099e+00     1.34505068791306e+00 -7.17723220790944e-01 -5.13128172271462e-01
 H  3.94635345124636e+00  7.50363152310634e+00  7.94861437358424e-01    -1.58224487404073e+00  3.99432628829740e-01 -3.74674478041378e-01
 O  3.84013515659753e+00  6.75462479964408e+00  9.46534816159780e-01     2.09800882285191e-01  4.91353800690286e-01  4.86448797980029e-02
 H -5.35823796017782e-01  3.63015787215626e+00  6.58101887558834e+00     4.59757369980361e-01  1.32566321609931e+00  1.66601361832805e-01
 H  5.75764491487850e+00  6.56433282229840e+00  5.27369421086464e+00    -4.81169742272556e-01 -1.04419593589828e+00  9.40210806323634e-01
 O  6.28552025575686e+00  2.75680586790144e+00  1.13478877611739e+00    -1.79768575932347e-01 -3.24947054921012e-01  1.26088657206304e-01
 H  3.79296222547063e+00  3.06325881937277e+00  2.80533113972640e+00     2.68717640503060e+00 -3.44555069924685e+00 -5.01192519930182e+00
 H  6.27093366316877e-01  9.30769826680332e+00  2.18179003164129e+00     2.77650219703249e+00 -4.27992184679205e-01  1.63643529674958e-01
 O  3.71807115307404e+00  2.74143416183211e+00  5.08252477289135e+00    -1.35574743313130e-01  3.11040918542239e-01 -1.04340721823682e+00
 H  7.20607020910112e+00  5.95993688126790e+00  8.20097096594411e+00    -1.47644858587077e+00  9.83747023606907e-02  3.64031528869700e-01
 H  6.24470136911071e+00  7.82295173538172e+00  4.77220496985464e+00    -4.03416392167617e-01 -3.09813551574626e-01 -1.18301099725324e-01
 O  3.61243547834226e+00  2.40064603831711e+00  2.41672716003412e+00    -7.01065878227147e-02  3.31919118303138e-01 -5.09281995425565e-01
 H  8.68004771221642e+00  3.00199115040912e+00  5.38037172617252e+00    -1.91329179273530e-01 -5.20992567654043e-01  5.31121630450413e-01
 H  7.42009827059307e+00  4.27935821171886e+00  6.48310839707274e-01    -1.98667257971563e-01  4.89742362254865e+00 -1.57998094719245e-01
 O  7.91107393374333e+00  4.27011136869125e-01  6.71154877073045e-01    -7.25886427717299e-01  3.15451431097826e-01 -9.22420031151531e-02
 H  9.10760134587567e+00  8.38424412496489e+00  5.67136435893553e+00     6.39361140346685e-01 -6.82042636296025e-01 -1.94956440385184e-01
 H  3.70510877273912e+00  6.37408307263839e+00  6.85441902385357e+00     3.46454479773524e+00 -1.70034982899554e+00 -1.09708756348177e+00
 O  8.56448328510227e+00  8.91972182829517e+00  1.87136598972226e+00     2.67096874451123e-01 -5.93965039798058e-01 -6.17368614064617e-01
 H  6.04861884284076e-01  3.14177971599375e+00  1.01227552249477e+00    -2.36133521548236e+00  5.05453784868522e-01  3.04050581265556e+00
 H  8.34247196880271e+00  1.63170524845414e-01  6.83367281829170e+00    -1.53087987296517e+00  7.57488851728299e-01 -2.39189528558077e-01
 O  5.96040078843953e+00  3.85479410388788e+00  6.68199756296895e+00     3.26985526940030e-02 -5.99471920607178e-01 -6.72978917895714e-02
 H  5.92487959862303e+00  4.28978945101875e+00  7.34085644720404e+00     8.15319416577464e-01 -1.05163101033870e+00 -5.18099093941044e-01
 H  7.79057840284951e+00  1.56268925441462e+00  7.73164434187700e+00     1.57197493949624e+00  6.10823592956129e-01  1.15435866341250e+00
 O  2.36091942612590e+00  1.38052512135816e+00  8.00672246730119e+00     3.06338819079249e-01 -6.49198886451462e-01  5.12947073428040e-01
 H  3.30900516479701e+00  3.16913648515813e+00  4.37021906937337e+00    -4.27050957363613e+00  1.39956449620138e+00 -4.41138840900625e+00
 H  6.40732707830463e+00  8.64108797388993e-01  5.22297736044139e+00     1.28108861936526e+00  3.42718088798378e-02 -1.13350289249707e+00
 O  7.51241082125330e+00  5.37726544999713e+00  8.37256568158663e+00    -2.37699586869677e-01 -1.77324757629923e-01  2.35767828782928e-01
 H  3.91484717872683e+00  6.14147916162319e+00  1.30006675079223e+00     1.56619618403775e+00  1.23641007620176e+00 -1.58030914196474e-01
 H  7.71167540304397e+00  6.04627801856427e-01 -4.87985631430775e-02     8.66895539652291e-01  1.63808237792216e+00 -6.44519443974977e-01
 O  1.12930823060904e+00  6.66375397051308e+00  3.23215988570443e-01     8.08445828925933e-01 -1.11492509452680e+00 -1.71335337023965e+00
 H  5.27363745937366e+00  3.62179764657518e+00  7.01487669552432e+00     3.44022777526892e-04  8.27246022858359e-02 -6.26929560010013e-01
 H  6.01531476894518e+00  2.85449839056342e+00  1.88140936109801e+00     1.38900858332238e-01 -1.44438879903577e+00 -1.62521560019307e+00
 O  6.17783792081736e+00  7.46155260049520e-01  5.98540028510722e+00     2.62606651971418e-01  1.25413806968537e-01  2.30574892213940e-02
 H  4.07783242232490e+00  1.80858240117487e-01  6.95698743653538e-01    -1.70340897881175e+00  2.68156412884830e-01 -6.79468378266485e-01
 H  3.49488297929723e+00  2.14534971914012e+00  1.70463279916674e+00    -1.53209737294152e-01  9.86763532961768e-02 -1.04709438396625e+00
 O  4.03359737168372e+00  5.77786445342301e+00  5.07382321680225e+00    -6.22633546302146e-02 -7.17618282844528e-03  3.41389302772829e-01
 H  8.29024782811821e-01  4.58706967720168e+00  1.29880009446841e+00    -3.29564450883450e+00 -5.23056329203829e-01  1.64974789968862e+00
 H  3.45470949024974e+00  2.66300551775485e+00  6.08744642080663e+00     1.42734040733576e+00  1.65587858312622e+00  5.35251457799102e+00
 O  3.80557222111654e+00  2.85572932773433e+00  3.69891214269643e+00     2.85424066054442e-01 -5.17179832157430e-01 -7.45991509568533e-01
 H  4.53348601138590e+00  4.65433296765197e+00  7.37468302179016e+00    -8.96365767231079e-01  9.72524404470646e-02  1.63921925997489e-01
 H  6.95635479779160e+00  2.89047833855324e+00  1.62214715637748e+00     1.24132173576647e+00  6.61083226320684e-01 -1.15594650741949e+00
 O  4.44338777409942e+00  8.11654791018806e+00  8.73907556493175e-01    -9.58715223641590e-01  3.80716262087634e-01 -7.42122917436934e-01
 H  1.13205859739477e+00  6.28806832075922e+00  8.28467239046357e+00    -2.44665170083002e+00 -7.71197610139814e-01 -3.59263204717330e+00
 H  3.91255618260167e+00  5.70599329733745e+00  5.82827613221120e+00     5.83230802929053e-01  2.92456145121609e-01 -2.07599457678471e+00
 O  3.45430994411658e+00  5.75924636550885e+00  6.46303666749279e+00    -1.37759740174090e+00 -2.01012823785912e-01 -3.41683110960410e-01
 H  1.46290930486562e+00  2.17243695212656e-01  3.22518742478304e+00     6.60068780774068e-01  2.57186018682008e+00  2.39749303401747e+00
 H  5.08202424387354e+00  7.74985536877774e+00  1.03957947319513e+00    -1.48429674249907e+00 -2.96257005738774e-01 -1.00769620110155e+00
 O  3.26035368392170e+00  1.04991402395919e+01  6.14990870565912e+00    -1.12893927536649e+00 -3.32450903709641e-01  1.75699620196122e+00
 H -6.40212368684664e-02  9.78220604000000e-02  1.10178870351174e+00    -8.91901772662922e-01  1.41564624097534e+00 -2.04406681675951e+00
 H  8.12676686599850e+00  4.99435130755025e+00 -1.87346950852120e-02    -2.00175455973933e+00 -1.50782392531520e+00  4.17359101025421e-01
 O  8.13019800973989e+00  4.34621846046334e+00  3.83220383102479e-01     2.97567676061547e-01  9.64883122592269e-03  5.56309502695293e-02
 H  1.54616467440474e+00  1.95259776419964e+00  4.88043860577480e+00    -4.50293991555889e-01  9.41324935170426e-03  1.20460365990705e+00
 H  8.73117743014990e+00  8.60703717264077e+00  2.60969452610977e+00     2.36244064339472e+00 -4.81043619625761e-01  3.92743691507047e-01
 O  6.43314932321124e+00  7.05946037168596e+00  4.80356649906762e+00     4.52276266354999e-01  1.97402344243184e-01  4.42806928531747e-02
 H  3.45970176411230e+00  1.06250384299915e+01  5.41907770471970e+00     2.16934268925727e+00  5.10222749068457e+00  3.89897399969657e+00
 H  2.00210033288143e+00  4.92174229452553e+00  3.89077964940792e+00    -3.54048618585271e-01 -8.09830232187517e-01 -9.39764083824325e-02
 O  5.04578552691116e+00  4.14498769363492e+00  7.64066510830634e+00    -6.48347320443228e-01  6.75890415994130e-02 -2.18631365533425e-01
 H  6.51852504706665e+00  6.47152993247705e-01  6.65714176063895e+00     2.30786836112913e-01  2.57784643261743e-01  1.01078171940466e-01
 H  6.88170531713551e+00  3.22163645128163e+00  2.90488491972496e+00     1.51652170125075e+00 -6.26553984361544e-01 -2.02084039299763e+00
 O  5.80070206426633e+00  6.48593543446635e-01  4.70636987147237e+00     4.81879801113118e-01 -2.65098437529399e-01 -2.88823314116555e-02
 H  1.05164549632496e+00  5.94222003298544e+00  3.53550480384656e+00    -1.48896475922500e+00 -1.74883926418837e+00 -6.01980486462528e-01
 H  4.09488595539838e-01  1.78113351031291e+00  3.98325903395464e+00    -1.53378405287309e+00  2.93628388576241e+00  4.35123206044170e-01
 O  3.31251018597921e+00  1.24172001069916e+00  3.33396847443763e-01     3.46347276887496e-01 -1.41410013226590e-01  7.97024724328547e-01
 H  3.50491322972013e+00  2.27442445731640e+00  3.32532290840084e+00    -1.10600194649218e+00  3.06155331856738e-01  3.02231990125397e-01
 H  6.14712906128522e+00  2.25475985869510e+00  5.89158905564721e-01    -4.86174330562671e-01 -1.30791414250456e-01  2.07378259998594e-01
 O  5.44498720276585e+00  6.16693304806479e+00  4.67505805349636e+00     5.60615298994062e-01  4.44734443043107e-01  1.92369022325608e-02
 H  7.89804558678479e+00  7.63454886453993e-01  1.49187140230998e+00     4.01880504500114e-01 -2.06478900830240e-01  9.40365893480275e-01
 H  1.35991919588073e+00  5.80769360657680e+00  6.98414298372170e+00     3.60378916978931e-01 -6.77199755204045e-01  1.67105580755274e+00
 O  7.47049980424822e-01  3.88818395091704e+00  1.00624961661677e+00     1.06913677032822e+00 -2.91343821819654e-01 -2.79583440553964e-01
 H  2.88480986614953e+00  1.77153899971060e+00  8.56712815734471e+00     6.98000369834173e-01  5.01865027384877e-01  1.03057317765866e+00
 H  5.60420126905712e+00  7.15714997462067e-01  4.07349427050406e+00    -2.89478500414380e-01 -2.85417964840744e-01  5.00052419506186e-01
 O  8.34348427053479e+00  3.42987080275297e+00  5.90892896022029e+00    -5.49143711444116e-04 -5.78314868786818e-02  3.79600424131855e-01
 H  2.82077704328912e+00  8.35073052437813e-01 -1.23856598987915e-01    -1.57981250563132e-01  8.96526331529870e-02  7.03334929518717e-01
 H  3.37565595320515e+00  5.81921668448642e+00  4.69877738359899e+00     2.12488111785460e+00 -1.13673589549973e+00 -4.49659351050268e+00
 O  6.68302521076095e+00  2.95316261208518e+00  2.37336317677350e+00    -3.41045503289209e-01  3.59143652151994e-01 -1.54733705115633e-01
 H  4.71559406516380e+00  5.94303458070793e+00  4.74260685459750e+00    -3.70327451992470e-01  1.88569462567072e+00  2.33032667188505e+00
 H  5.98180689610399e+00  6.59539182259936e+00  4.30782265055122e+00     2.50375616269248e-01 -1.56925743426268e+00 -5.79031385470670e-01
