   96
 8.60913090000000e+00  8.60913090000000e+00  8.60913090000000e+00
 O  2.05293284448515e+00  6.91312730213654e+00  6.73256797528930e+00     4.41835210065231e-01  4.13406569378841e-01 -1.18666681574414e-01 
 H  4.00326290553424e-01  6.89991476760717e+00  1.45377597904078e+00    -5.12072218201879e+00 -4.42374389268524e+00  1.44186843992265e+00 
 H  1.87541497793589e+00  5.45222699334959e+00  7.08901195429670e+00     7.85619314839458e-01 -2.97765917019326e-02  3.76699113812870e+00 
 O  8.47164908733465e+00  8.38671698232505e+00  5.63391619391512e+00     8.33354597856041e-02  6.83274727278599e-01  5.04427426688069e-01 
 H  1.77632979136520e+00  3.25257622150285e+00  7.07882338163832e+00    -1.22417842747601e+00  3.18091549439332e+00 -1.30811315955001e+00 
 H  7.19865281695505e+00  5.00538457134214e+00  4.99735052751000e+00     2.65794201023072e-01 -2.46011899833253e+00 -3.44368749367988e-01 
 O  1.46937437314923e+00  7.98931358053177e+00  2.85813065288140e+00    -1.09780140941104e-01 -3.87965958653512e-01 -2.63764031084847e-01 
 H  7.78212659026512e-01  1.87065880577573e+00  7.21911317471245e+00     3.86923251866278e+00 -1.04908531421435e+00 -6.59083446535950e-01 
 H  3.76729412478244e+00  6.28462195073100e+00  6.85488485914831e+00     1.13770163976308e+00 -9.63648757936621e-01  1.32113465832259e+00 
 O  1.22243316831690e+00  2.32622071138629e+00  3.89876774223497e+00     7.51526005892759e-02 -2.22381511109818e-01 -1.94891484266460e+00 
 H  3.79722537185462e+00  4.64685158724202e+00  7.70373753297605e+00     2.09652078877678e+00  1.33594720675086e+00 -2.69440819624329e-01 
 H  3.37355745535311e+00  8.65421919168053e+00  7.34582120076885e+00     3.88531253448098e+00  1.41597847430631e-01  3.95804035645666e-01 
 O  2.10589414868609e+00  4.39427003251922e+00  7.52518378285604e+00    -8.62744073312383e-02 -5.41787286344222e-01  2.20182906941644e-01 
 H  4.22898785770673e+00  3.61964715858748e+00  4.14690248348257e+00    -5.33760910145615e-01  2.55734563950778e-01  1.51742354292917e+00 
 H  1.45755238192579e+00  6.01042014955834e+00  8.38521136310984e-01     1.91557555462067e+00 -1.86147365960354e+00  3.21830904442313e+00 
 O  8.00129312508696e+00  1.43913796269202e+00  7.56851809714549e+00    -5.12042371463730e-02  7.25330270762044e-02  2.39359690762743e-01 
 H  2.43558257543008e-01  4.41255651372210e+00  3.69201768798675e-01    -4.42919378922443e+00  1.35796047078579e+00  6.76943650833877e-02 
 H  5.91608022138630e+00  3.41957297860763e+00  5.05255097350396e+00    -1.62486498598580e+00 -2.30621988210955e+00 -9.43407971942011e-01 
 O  6.65320886829599e-01  5.20344149512109e+00  3.54013862187404e+00    -6.26854706099589e-01 -1.07566931560755e+00 -6.05146959962404e-03 
 H  4.78026281631995e+00  5.54869311821263e-01  6.36867252565218e+00    -8.95917565730166e-01  4.16240667518055e+00 -3.93277035905350e-01 
 H  3.70898845265584e+00  7.11512170030996e+00  1.85397263426007e+00    -9.36247839951580e-02  4.79732058255998e+00  1.16214209645305e+00 
 O  3.41844527173164e+00  6.16759618463372e+00  2.09065183807366e+00    -8.60618553369727e-02 -8.56831481758013e-01 -4.26886779056231e-04 
 H  8.05202697975234e-02  3.04788721969981e+00  6.73517475962116e+00     5.84295322035179e-01  4.21710058650083e-02  6.45843565652342e-01 
 H  6.09017954790919e+00  6.31748625539561e+00  4.39714427713267e+00     1.47050162487548e+00 -9.00851965364635e-01 -5.35142702597964e-01 
 O  6.01594376523239e+00  2.36140983491041e+00  1.37214428065270e+00    -1.87042191606628e-01 -9.63910924423448e-01 -7.41022764844580e-02 
 H  5.69294926245279e+00  3.81604936164602e+00  3.61180165608329e+00     3.19175745301685e+00 -8.66878768663554e-01 -6.69836941455566e-01 
 H  1.67753691497735e+00  8.59135482308203e+00  3.68979673790078e+00     2.43139178269646e+00  1.56860631432351e+00 -4.40101618327186e-01 
 O  3.38647621685773e+00  2.82357573160879e+00  5.25913877420903e+00    -5.66863291310471e-01 -1.25100171982415e+00 -7.82242415161397e-01 
 H  7.90678770428848e+00  7.47304180368359e+00  8.27108472709619e+00     1.18528654047591e-01  8.19908462950333e-01  2.04625110955523e+00 
 H  7.42395154227633e+00  5.95354810393862e+00  6.34271268804016e+00     3.28874200171044e+00 -1.61854073733928e+00  1.70986137272464e+00 
 O  3.31913217057266e+00  2.19921578858751e+00  2.26751738417525e+00    -3.99516261259728e-02  1.22431927335131e-01 -6.15770856009236e-01 
 H  8.32495370533420e+00  2.95711992554504e+00  5.27699075482998e+00     3.25049772315069e+00 -1.75831294035017e+00 -1.52636282820037e+00 
 H  7.01130237788029e+00  4.10613880529450e+00  7.86658994886268e-01    -3.09420597683486e+00  1.31931997683340e+00 -5.96279057716031e-01 
 O  8.67705733222937e+00  1.25548926609189e+00  1.05100636810744e+00     2.54180926348130e-01 -1.11573503863494e-01 -1.10727856365232e-01 
 H  7.95727598051903e+00  9.00808627632755e+00  5.04457324975309e+00    -1.73755453139393e+00 -9.04144571185848e-01  3.84398594771612e-01 
 H  5.35087708291757e+00  7.11123156536397e+00  7.45323595050022e+00    -9.69934450265113e-01  1.43613042692061e+00  8.21763327404674e-01 
 O  7.27636892230696e+00  8.22811759521637e+00  2.52760068669262e+00    -4.01022666241982e-01 -1.61469281567431e-01 -2.86343018461011e-01 
 H  1.92716783228224e+00  4.08039287291929e+00  4.11832515470999e-01     1.38667312410272e+00  1.54843333635699e+00  1.36129545709899e+00 
 H  8.49532180580474e+00  6.96291761318846e-02  6.66236910177040e+00    -1.28676261984126e+00 -2.48419029593470e+00 -4.45609269505048e+00 
 O  5.74316745424172e+00  3.11196651085933e+00  5.85326483270130e+00    -5.13930152780518e-01  3.54739153175165e-01 -2.76747370004230e-01 
 H  5.43159006598959e+00  3.71498047657510e+00  7.71385864800374e+00     1.22029882880587e+00  9.56402528958612e-01  1.89935076982005e+00 
 H  7.33546352581269e+00  1.87276849667368e+00  6.92703728473842e+00    -4.41787006794904e+00 -2.21777781977965e+00 -1.41776333510108e+00 
 O  1.86984673213947e+00  2.27663081161381e+00  6.96596018062675e+00    -2.45437740083467e-01  4.55755645243837e-01 -1.13239473287188e-01 
 H  2.63252862553805e+00  3.44834111222763e+00  5.31851271596572e+00    -3.74658211309254e+00 -1.74631561024626e-01  9.79895615406853e-01 
 H  5.54217698914130e+00  1.11364686785816e+00  4.79451160075422e+00    -9.00574897584279e-01 -2.16123867027171e+00  9.20777370292966e-01 
 O  7.15476284068255e+00  6.82632067141108e+00  8.11198732249531e+00    -1.55840602939226e-01  1.73639862084512e-01  1.47626505055037e-01 
 H  3.97917744784989e+00  5.75579376793140e+00  1.42553211028227e+00     6.21942457959602e+00  5.67409579533777e-01  3.94551911199538e+00 
 H  8.02274761054524e+00  1.74352456365339e+00  3.58530835366847e-01     4.27748295212323e-03  2.22079600141539e+00  1.19051147492862e+00 
 O  9.01541419177810e-01  6.78564089297508e+00  5.87913919658667e-01    -2.48973502704869e-01  7.78733424795422e-01 -2.15206089673242e-01 
 H  4.88770799899904e+00  2.55510303756306e+00  5.76642092329600e+00     3.74847987583426e+00  1.27705091329099e+00  2.61741880585631e+00 
 H  6.79665857890680e+00  2.54027196108290e+00  7.24743839756411e-01    -8.43525084973710e-01  4.27690947250275e+00 -2.76402510992417e-01 
 O  5.82842040792686e+00  4.55420726300597e-01  6.58983034178147e+00     5.11182349384333e-03 -2.90857218981330e-01 -7.26172169206577e-01 
 H  4.05221707614290e+00 -3.45059253278923e-01  1.04342510672725e+00     3.23249253642518e-01 -2.55515752149488e+00  1.00103423022563e+00 
 H  2.38512543617274e+00  2.46477758445385e+00  2.09990218577102e+00     2.69419340401077e+00 -7.05463704390732e-01  2.71857962165598e+00 
 O  3.12029561331272e+00  6.49353714193528e+00  4.09511134501691e+00    -1.33842277538369e-01  1.41252172201807e-01  4.89939474264843e-02 
 H  1.72428648841466e+00  4.21946886962946e+00  2.03632381251059e+00    -2.75170466493936e+00  5.82166519105058e-01 -1.15360562022588e+00 
 H  3.36949864665076e+00  1.91983443397474e+00  5.49780356635475e+00     3.45821140148403e+00 -2.46403408850276e+00 -1.70719779027852e+00 
 O  4.81826291253902e+00  4.38702018502833e+00  3.73393915765147e+00    -1.60528164525982e-01  6.96254347030818e-01  3.37742979110878e-01 
 H  5.15865342654100e+00  5.10655676159710e+00  8.36663489946905e+00     1.14905502662527e+00  1.34068761144452e+00  1.09290698238643e+00 
 H  7.08336690176805e+00  2.47653643406482e+00  2.66095302435849e+00    -1.41851997676000e-01  1.14715976376710e+00  8.27997269502177e-01 
 O  5.12756856311988e+00  8.12874357167597e+00  1.23194807358174e+00    -3.03906544438528e-01 -1.05067463942411e-01  1.05042391776033e+00 
 H  1.74082562281435e+00  7.77283827953754e+00  6.88836972974176e+00     2.30329389263197e+00 -4.02991280358996e-01 -9.23788961789146e-01 
 H  3.58501136723849e+00  6.52320648923626e+00  5.10193371001513e+00     5.86418797075058e-02  2.80690728256411e-01 -3.03594154712108e-01 
 O  4.79810504317771e+00  6.57509444911651e+00  6.94050191014354e+00     4.35547808247498e-03  3.91923924178714e-01  1.04719319894794e+00 
 H  2.48376340518478e+00 -5.85751313440712e-01  2.33871355828492e+00     3.65521095749762e+00 -1.27165558024168e+00  9.02723632867854e-01 
 H  5.44817130052530e+00  8.76044639871148e+00  6.56041572179814e-01    -6.45416814435393e-01  1.42544065014392e+00 -2.01335514475385e+00 
 O  3.40793315701463e+00  8.78042755136822e+00  6.34173978933324e+00     1.03810407567039e+00  1.19472089471321e+00  3.02904651881568e-02 
 H  6.44868259386861e-01  6.10218722738139e-01  1.69163553738103e+00     1.35466700159132e+00  4.14693041952652e-01  3.22741207975180e+00 
 H  7.29414826262851e+00  5.37568041770493e+00 -2.31931521804320e-01    -2.35653162442877e+00 -2.99399182593731e+00  3.08200571573287e+00 
 O  7.76051751711850e+00  4.64504225789932e+00  4.49445086254571e-01     1.66006789452332e-01  4.42637343280026e-01 -4.23568463061557e-02 
 H  1.96630880866119e+00  3.11808717897884e+00  3.74479014876119e+00     3.10445235677165e+00 -7.61453208383791e-01  2.84896711388833e+00 
 H  6.94348596972775e+00  8.55295008010436e+00  3.39739059801801e+00     7.24205338029150e-01  2.97376341340801e-01 -8.79474806026760e-01 
 O  6.96079375812180e+00  5.72205736772302e+00  5.50994747952885e+00     2.13648861773183e-01  7.30994904831490e-01  4.74046181589988e-01 
 H  3.24062435449011e+00  8.07649892940994e+00  5.61020682643128e+00    -1.12394871251996e+00 -1.86533092330558e+00 -4.00349309817001e-01 
 H -2.93887792989651e-01  5.03583931641600e+00  3.52544009111037e+00    -1.11174868679636e+00  4.87561834277592e-01 -8.37356485755929e-01 
 O  4.81149259970170e+00  4.26874411921017e+00  8.15888479387054e+00     1.35205736719052e-01  2.51728348879125e-02 -9.51372436464439e-02 
 H  6.88099574786116e+00  1.59885423466859e-01  6.83112903970048e+00     1.83586768505891e+00  1.26321652494799e+00 -8.43329524204428e-01 
 H  7.14178543547693e+00  2.75673066530042e+00  4.44667526356280e+00     1.89775071753109e+00 -2.35097826382195e+00  3.63907685936525e-01 
 O  5.49145296250295e+00  8.51672570774740e-01  3.86416446740843e+00    -9.76871251655780e-02  1.09976884150946e+00 -4.40088511866595e-01 
 H  7.36288381277037e-01  6.17510059068263e+00  3.55194063613949e+00    -2.93155027229715e+00 -1.13543441796322e+00 -2.04506061125528e+00 
 H  6.48991527642080e-01  2.26474522398487e+00  3.08921254511601e+00    -6.08780081248137e+00  8.18337930889192e-01 -3.21789148426586e-01 
 O  2.82041991002237e+00  6.35680579386206e-01  4.63362542912913e-01    -4.04929867750429e-01 -5.95794166135925e-01  9.31115938595930e-02 
 H  3.98476369538768e+00  1.60074806176020e+00  1.75629881005490e+00    -2.78564649234810e+00 -2.83986843045817e+00  3.47280592445370e+00 
 H  5.11977277366314e+00  2.59916459754686e+00  8.80892116223168e-01     4.10719365218762e+00  3.43741429031977e+00  1.24685048014894e+00 
 O  5.70470301659858e+00  6.29484326888296e+00  3.48222629119530e+00     1.89000680737769e-01  1.56681208062876e-01 -1.84387228279874e-01 
 H  8.27453895785259e+00 -2.94940797608028e-01  2.71259438027027e+00    -2.61610705303737e+00 -4.15982817243790e+00  1.99530119544124e+00 
 H  1.56315401626155e+00  6.98188543524701e+00  5.95808631106881e+00     2.79110981617838e+00 -2.06766453887353e+00 -1.36702940121602e-01 
 O  1.42699837964974e+00  3.71198520315994e+00  1.29546926682174e+00     7.72927733382480e-01  1.59026323754771e-01  4.64341281600171e-01 
 H  2.48887098823330e+00  1.67256390301513e+00  7.82681182146860e+00     1.91799594538334e+00  4.94489665479323e-01 -3.75513702672710e+00 
 H  5.29269462299058e+00  8.33383657818696e-03  3.44126853446393e+00     3.18304983014736e+00 -2.26254019679507e+00  6.59755604114871e-01 
 O  8.32626955856009e+00  3.65809511989299e+00  5.94059115447462e+00     4.65184278693400e-03 -6.23322271274647e-01  4.97581802272075e-01 
 H  2.11205004082348e+00 -1.14511901405655e-01  1.05793363044716e-01     2.85936003889598e+00  5.99260237674105e-01 -1.17883945421744e+00 
 H  2.40266117046240e+00  5.95906514570721e+00  4.25161392707977e+00     3.76703842217556e-01 -3.80815334163336e-01  3.68178530254324e-01 
 O  7.32955031327439e+00  2.83753216207050e+00  3.52977660760836e+00    -4.68503263732607e-01 -2.58126497216634e-01 -4.09568934436774e-01 
 H  3.81224083234618e+00  6.14158196519272e+00  3.67738694436542e+00    -3.13426001944761e+00  1.79796130133931e+00  8.81955121358517e-01 
 H  6.19784222950044e+00  6.01904295600938e+00  2.64920006548780e+00     1.83322518141923e+00 -1.52710316064809e+00 -1.09179009978841e+00 
