14

O      5.9816      3.0210     10.3147
O      3.8052      3.1241      9.4435
H      4.1347      1.0943      3.5998
H      3.2525     -0.2342      4.4851
H      5.1274      2.3169      6.2874
H      4.1772      1.9610      5.0922
H      3.8421      2.0987      6.9742
N      5.8402      2.4014      8.2824
N      4.5751      1.2049      4.5656
N      5.3648      0.5632      7.1053
C      4.3707     -0.1565      4.8302
C      5.1046      2.9013      9.3777
C      4.9129      1.8120      7.2479
C      4.9319     -0.3769      6.1418
