24

O     10.4443     -0.9097      4.3573
O      8.1204     -0.3984      6.8736
O      8.5738      0.3956      3.1643
H      9.4574      0.5707      3.0817
H      3.6402      1.6112      4.1409
H      4.4913     -0.5534      3.9411
H      3.0022     -0.2617      4.8863
H      7.0932      2.4074      7.1799
H      9.9951      1.6340      4.8796
H      3.9351      2.0053      5.6443
H      3.7057      4.2848      3.4131
N      4.3541      3.5123      3.3602
N      4.2082      1.4363      4.8866
N      5.6848     -0.1151      6.9454
C     10.2772     -0.4693      5.6091
C      5.4949      3.2902      3.6259
C      8.0988      0.3538      4.5146
C      4.2758      0.0830      4.9495
C      9.4536      0.7484      5.4400
C      5.8901      1.9249      4.2271
C      7.3577      1.6534      6.2832
C      4.7513     -0.3617      6.3412
C      8.6802      1.1017      6.5987
C      7.1157      1.7008      4.9498
24

O     10.4364     -0.9217      4.3327
O      8.1096     -0.4101      6.8725
O      8.5921      0.3939      3.1651
H      9.5332      0.5444      3.1184
H      3.6435      1.6266      4.1113
H      4.5119     -0.5763      3.9817
H      3.0172     -0.2338      4.8541
H      7.0316      2.3996      7.2266
H     10.0009      1.6604      4.8506
H      3.9777      2.0076      5.6702
H      3.6940      4.2606      3.4276
N      4.3682      3.5129      3.3430
N      4.1958      1.4413      4.8955
N      5.7009     -0.1270      6.9465
C     10.2911     -0.4425      5.6068
C      5.5037      3.2603      3.6343
C      8.1054      0.3654      4.5095
C      4.2819      0.0950      4.9538
C      9.4478      0.7485      5.4388
C      5.8914      1.9286      4.2316
C      7.3497      1.6622      6.2810
C      4.7598     -0.3418      6.3370
C      8.6824      1.1036      6.6158
C      7.1275      1.6790      4.9521
24

O     10.4258     -0.9311      4.3086
O      8.1043     -0.4218      6.8717
O      8.6098      0.3917      3.1679
H      9.6301      0.5209      3.1477
H      3.6310      1.6548      4.0530
H      4.5396     -0.5679      4.0406
H      3.0702     -0.1942      4.8259
H      6.9765      2.3646      7.2411
H      9.9922      1.6637      4.8259
H      4.0172      2.0160      5.7143
H      3.6833      4.2380      3.4318
N      4.3834      3.5128      3.3247
N      4.1848      1.4462      4.9015
N      5.7172     -0.1386      6.9499
C     10.3023     -0.4181      5.6031
C      5.5130      3.2269      3.6432
C      8.1145      0.3822      4.5050
C      4.2842      0.1023      4.9590
C      9.4404      0.7487      5.4347
C      5.8925      1.9341      4.2349
C      7.3427      1.6742      6.2821
C      4.7699     -0.3212      6.3270
C      8.6829      1.1035      6.6366
C      7.1395      1.6565      4.9528
