20

O     10.1652     -1.2949      3.9933
O      8.4399     -0.6393      7.3216
O      8.5322      0.0463      3.0133
H      9.2039     -0.9203      3.3417
H      9.3025      1.4739      7.2706
H      7.4203     -0.4254      7.7750
H      8.7379      0.6297      2.1970
H      6.6223      1.2715      7.3061
H      9.8490     -1.2046      6.1911
H      9.9425      1.6794      5.5786
H      3.9506      2.8030      2.4179
N      4.8646      3.3131      2.5684
C     10.0181     -0.8366      5.2199
C      5.7872      2.8517      3.3793
C      8.3128      0.4667      4.3614
C      9.4428      0.6220      5.3425
C      6.3442      2.3372      4.5108
C      7.5442      1.5144      6.4384
C      8.6895      0.5107      6.6527
C      7.3057      1.3527      5.0668
20

O     10.1465     -1.3097      3.9974
O      8.4339     -0.6439      7.3209
O      8.5318      0.0249      3.0078
H      9.2208     -0.9598      3.3420
H      9.3292      1.5660      7.2454
H      7.3854     -0.3010      7.8066
H      8.7728      0.6520      2.2049
H      6.6443      1.1825      7.3493
H      9.8250     -1.1251      6.2041
H      9.9315      1.6984      5.5000
H      3.9892      2.7649      2.4049
N      4.8591      3.2961      2.5815
C     10.0187     -0.8201      5.1917
C      5.8028      2.8521      3.3666
C      8.3032      0.4606      4.3907
C      9.4417      0.6390      5.3097
C      6.3589      2.3420      4.5215
C      7.5254      1.5118      6.4306
C      8.6715      0.5227      6.6442
C      7.2867      1.3587      5.0790
