15

O      5.3249      2.0700     10.3574
O      2.6361     -0.3570      7.3025
O      3.5412      2.5935      9.2262
H      1.8902      1.2948      4.6596
H      4.8132      0.9927      5.2015
H      6.7178      3.3543      8.0775
H      3.9475     -0.9026      5.5555
H      2.9384      0.3976      3.6637
N      5.6373      3.1143      8.3178
N      2.8586      0.7550      4.6458
N      4.3637      1.0381      7.5944
C      3.9407      0.2251      5.4627
C      4.8006      2.3687      9.3224
C      5.3106      2.0270      7.3030
C      3.6308      0.0274      6.8046
15

O      5.3327      2.0724     10.3439
O      2.6557     -0.3701      7.2968
O      3.5390      2.5816      9.2389
H      1.9125      1.2583      4.5928
H      4.7353      1.0968      5.1972
H      6.7618      3.4534      8.0567
H      3.9667     -0.9531      5.5516
H      2.9734      0.4384      3.6885
N      5.6334      3.1147      8.3455
N      2.8571      0.7579      4.6374
N      4.3459      1.0545      7.6148
C      3.9432      0.2065      5.4751
C      4.8185      2.3618      9.3191
C      5.3143      2.0050      7.2823
C      3.6403      0.0312      6.8070
15

O      5.3404      2.0748     10.3296
O      2.6740     -0.3836      7.2910
O      3.5369      2.5691      9.2500
H      1.9516      1.2068      4.5389
H      4.6624      1.1852      5.1977
H      6.7669      3.5422      8.0559
H      3.9907     -0.9984      5.5307
H      3.0132      0.4813      3.7062
N      5.6297      3.1111      8.3695
N      2.8546      0.7599      4.6277
N      4.3310      1.0715      7.6362
C      3.9453      0.1885      5.4839
C      4.8366      2.3591      9.3171
C      5.3159      1.9831      7.2618
C      3.6522      0.0394      6.8127
15

O      5.3487      2.0766     10.3159
O      2.6909     -0.3976      7.2851
O      3.5354      2.5565      9.2595
H      1.9858      1.1499      4.4992
H      4.6029      1.2518      5.2016
H      6.7327      3.6189      8.0756
H      4.0173     -1.0338      5.4956
H      3.0609      0.5224      3.7019
N      5.6265      3.1040      8.3893
N      2.8521      0.7602      4.6175
N      4.3190      1.0885      7.6579
C      3.9471      0.1715      5.4886
C      4.8535      2.3610      9.3149
C      5.3155      1.9614      7.2423
C      3.6662      0.0515      6.8220
15

O      5.3583      2.0772     10.3040
O      2.7065     -0.4118      7.2795
O      3.5348      2.5442      9.2675
H      1.9897      1.0979      4.4721
H      4.5634      1.2932      5.2077
H      6.6634      3.6831      8.1153
H      4.0449     -1.0564      5.4473
H      3.1176      0.5629      3.6725
N      5.6240      3.0939      8.4045
N      2.8512      0.7583      4.6073
N      4.3091      1.1049      7.6794
C      3.9489      0.1558      5.4891
C      4.8680      2.3680      9.3115
C      5.3127      1.9407      7.2248
C      3.6820      0.0673      6.8351
15

O      5.3694      2.0764     10.2949
O      2.7209     -0.4262      7.2741
O      3.5350      2.5330      9.2741
H      1.9519      1.0540      4.4548
H      4.5478      1.3068      5.2148
H      6.5662      3.7349      8.1731
H      4.0718     -1.0641      5.3862
H      3.1803      0.6077      3.6292
N      5.6222      3.0813      8.4147
N      2.8528      0.7540      4.5969
N      4.3011      1.1198      7.7001
C      3.9508      0.1417      5.4858
C      4.8792      2.3803      9.3063
C      5.3075      1.9217      7.2100
C      3.6991      0.0861      6.8519
15

O      5.3816      2.0738     10.2887
O      2.7347     -0.4404      7.2689
O      3.5362      2.5236      9.2795
H      1.8869      1.0116      4.4466
H      4.5570      1.2921      5.2224
H      6.4511      3.7746      8.2449
H      4.0965     -1.0543      5.3155
H      3.2418      0.6619      3.5886
N      5.6210      3.0665      8.4197
N      2.8566      0.7477      4.5854
N      4.2960      1.1316      7.7189
C      3.9528      0.1294      5.4793
C      4.8862      2.3976      9.2997
C      5.3000      1.9055      7.1983
C      3.7172      0.1076      6.8717
15

O      5.3944      2.0695     10.2848
O      2.7482     -0.4541      7.2640
O      3.5382      2.5164      9.2836
H      1.8234      0.9622      4.4474
H      4.5891      1.2501      5.2300
H      6.3311      3.8062      8.3245
H      4.1181     -1.0263      5.2402
H      3.2945      0.7276      3.5644
N      5.6201      3.0497      8.4191
N      2.8614      0.7403      4.5721
N      4.2967      1.1376      7.7341
C      3.9550      0.1189      5.4706
C      4.8889      2.4194      9.2929
C      5.2904      1.8927      7.1894
C      3.7357      0.1306      6.8933
15

O      5.4072      2.0635     10.2825
O      2.7620     -0.4669      7.2592
O      3.5407      2.5121      9.2865
H      1.7861      0.9017      4.4558
H      4.6389      1.1862      5.2370
H      6.2194      3.8392      8.4059
H      4.1368     -0.9823      5.1653
H      3.3331      0.8037      3.5635
N      5.6193      3.0304      8.4128
N      2.8663      0.7326      4.5570
N      4.3049      1.1357      7.7445
C      3.9574      0.1106      5.4604
C      4.8871      2.4446      9.2877
C      5.2797      1.8838      7.1826
C      3.7537      0.1543      6.9156
