23

O      5.2639      2.6562      2.4839
O      7.7930      4.6412      5.0111
O      6.6032     -1.0165      4.1296
O      8.7941     -0.2318      7.5983
O      6.6925      0.6742      2.7013
H      7.3785      5.4874      5.1693
H      7.8678      0.1528      4.6424
H      6.0316      1.1731      7.2709
H      7.1287     -0.1122      2.0999
H      7.4194      4.3179      1.5341
H      9.6690      0.1753      8.0307
H      6.3223     -1.4513      3.2300
H      5.0666      1.5775      2.5997
N      7.5322      4.0443      2.6817
C      9.3108     -1.2829      5.1618
C      6.6514      2.9701      2.8379
C      6.4228      0.3999      4.0111
C      8.6368      0.0571      5.4283
C      7.5408      5.0462      3.7994
C      6.9216      2.5499      4.1377
C      6.7813      1.0116      6.5521
C      8.0409      0.5610      6.6197
C      6.4256      1.4703      4.9692
23

O      5.2851      2.6297      2.4644
O      7.7729      4.6583      5.0099
O      6.6109     -1.0144      4.1206
O      8.7943     -0.2479      7.5997
O      6.7073      0.6616      2.7015
H      7.3748      5.5032      5.1364
H      7.9566      0.0924      4.6357
H      6.0344      1.1296      7.2445
H      7.1503     -0.0495      2.0300
H      7.3591      4.2793      1.5684
H      9.6202      0.1472      8.0066
H      6.3247     -1.5382      3.2778
H      5.0012      1.5981      2.5687
N      7.5327      4.0617      2.6730
C      9.3184     -1.2915      5.1681
C      6.6488      2.9730      2.8394
C      6.4078      0.4125      3.9876
C      8.6769      0.0407      5.4428
C      7.5619      5.0197      3.7664
C      6.9379      2.5329      4.1412
C      6.7670      1.0009      6.5392
C      8.0476      0.5681      6.5948
C      6.4481      1.4722      4.9616
