32

O      5.7102      2.0486      2.6075
O      5.7757     -1.2547      2.4910
O      6.7384      4.6233      5.2877
O      7.4711     -1.3971      5.4682
O      9.5442     -1.7023      3.7839
O      8.3422     -0.5553      7.6793
O      5.3533      5.4574      3.7517
O      7.5329     -0.2166      3.5016
H      6.5314     -1.6813      5.5600
H      9.1497      1.1135      6.9717
H      5.8292     -0.8889      4.4200
H      6.5832      1.7491      7.3068
H      8.4758      0.1301      8.4182
H      5.6610      0.9142      4.9592
H     10.4217      0.1201      3.4649
H      6.1337     -0.5185      1.9478
H      9.1153      1.4818      5.2309
H      7.2128     -1.0455      6.2365
H      4.9563      6.0681      2.9082
H      7.9638      2.5535      4.7660
H      6.1612      4.1821      2.2241
N      6.8497      4.0943      2.8247
C      6.1367     -0.2961      3.4385
C     10.1001     -0.5240      4.4481
C      6.6999      2.7544      3.3443
C      7.6602      0.0112      4.7380
C      9.0625      0.4318      5.2837
C      6.7851      5.0860      3.9995
C      7.1059      2.2586      4.5831
C      6.7015      0.8157      6.8294
C      8.3049      0.4001      6.8156
C      6.6831      1.1007      5.2028
32

O      5.7122      2.0447      2.5813
O      5.7687     -1.2331      2.5012
O      6.7211      4.6285      5.2845
O      7.4734     -1.3887      5.4629
O      9.5160     -1.6919      3.7835
O      8.3663     -0.5472      7.6875
O      5.3480      5.4669      3.7338
O      7.5171     -0.2243      3.5151
H      6.5489     -1.7254      5.6327
H      9.1511      1.0798      7.0271
H      5.9193     -0.8656      4.4099
H      6.6365      1.7443      7.3053
H      8.4883      0.0800      8.4987
H      5.6025      0.8707      4.8765
H     10.4570      0.1884      3.4436
H      6.1451     -0.5005      1.9088
H      9.0720      1.4744      5.2054
H      7.2245     -1.0329      6.2770
H      5.0259      6.1223      2.9819
H      7.9721      2.5966      4.8408
H      6.1580      4.1413      2.1164
N      6.8701      4.0873      2.8342
C      6.1303     -0.2826      3.4190
C     10.0817     -0.5346      4.4483
C      6.6928      2.7397      3.3515
C      7.6735      0.0148      4.7208
C      9.0709      0.4107      5.2671
C      6.8107      5.0785      4.0129
C      7.0923      2.2660      4.5997
C      6.7170      0.8037      6.8225
C      8.3313      0.4149      6.8145
C      6.6749      1.0923      5.1989
32

O      5.7146      2.0427      2.5554
O      5.7625     -1.2115      2.5096
O      6.7048      4.6344      5.2798
O      7.4747     -1.3804      5.4564
O      9.4868     -1.6780      3.7838
O      8.3907     -0.5382      7.6968
O      5.3416      5.4773      3.7146
O      7.5015     -0.2322      3.5266
H      6.5710     -1.7880      5.6783
H      9.1330      1.0608      7.1037
H      6.0005     -0.8310      4.3792
H      6.6859      1.7423      7.3132
H      8.4979      0.0187      8.5704
H      5.5631      0.8323      4.7978
H     10.4846      0.2502      3.4499
H      6.1549     -0.5058      1.8581
H      9.0382      1.4752      5.1681
H      7.2543     -1.0066      6.3498
H      5.1039      6.1674      3.0645
H      8.0297      2.6637      4.9329
H      6.1468      4.1144      2.0040
N      6.8919      4.0780      2.8467
C      6.1194     -0.2703      3.3989
C     10.0645     -0.5446      4.4479
C      6.6849      2.7245      3.3579
C      7.6900      0.0208      4.7083
C      9.0751      0.3857      5.2499
C      6.8337      5.0704      4.0251
C      7.0779      2.2762      4.6124
C      6.7397      0.7991      6.8093
C      8.3579      0.4328      6.8114
C      6.6646      1.0787      5.1984
32

O      5.7180      2.0428      2.5304
O      5.7571     -1.1901      2.5157
O      6.6896      4.6407      5.2737
O      7.4745     -1.3720      5.4509
O      9.4567     -1.6607      3.7847
O      8.4153     -0.5287      7.7073
O      5.3347      5.4876      3.6949
O      7.4865     -0.2400      3.5351
H      6.5992     -1.8639      5.6979
H      9.1052      1.0638      7.1939
H      6.0632     -0.7892      4.3348
H      6.7304      1.7430      7.3276
H      8.5049     -0.0525      8.6270
H      5.5510      0.8037      4.7307
H     10.5017      0.2990      3.4851
H      6.1589     -0.5373      1.8038
H      9.0169      1.4766      5.1202
H      7.3068     -0.9801      6.4227
H      5.1845      6.2148      3.1435
H      8.0929      2.7380      5.0279
H      6.1509      4.1014      1.9154
N      6.9131      4.0670      2.8602
C      6.1050     -0.2600      3.3790
C     10.0491     -0.5536      4.4467
C      6.6761      2.7092      3.3630
C      7.7088      0.0292      4.7012
C      9.0751      0.3582      5.2329
C      6.8536      5.0614      4.0362
C      7.0661      2.2896      4.6227
C      6.7677      0.7990      6.7915
C      8.3837      0.4523      6.8060
C      6.6522      1.0607      5.2007
32

O      6.1280      2.3605      2.2927
O      5.2643     -1.0544      2.2025
O      6.5799      4.5947      5.2489
O      7.2098     -1.5010      5.3530
O      8.8763     -1.4085      3.7229
O      9.2061     -0.2126      7.4878
O      5.4011      5.4831      3.3933
O      6.8833      0.1425      3.3179
H      6.2300     -1.9162      5.1330
H      9.3888      1.4699      7.4772
H      7.2431      1.8758      7.7290
H      5.8410      4.2778      5.8487
H      8.6248     -0.7791      7.9346
H      5.7749      0.9877      5.2573
H     10.9147     -0.2209      4.5167
H      9.5733     -1.4678      3.0426
H      6.9984      0.5010      7.5270
H      8.8863      1.2993      4.3530
H      7.8611     -2.0187      5.7828
H      7.6597      3.1046      5.3193
H      7.0149      4.4870      1.9804
N      7.2270      4.0136      3.1258
C      5.3689     -0.2839      3.0572
C      9.8539     -0.5663      4.6175
C      6.8539      2.7053      3.3757
C      7.4936      0.1534      4.7557
C      8.9460      0.4488      4.9573
C      6.3857      4.7417      3.9660
C      7.0447      2.2684      4.6730
C      7.3574      1.2168      6.9165
C      8.8631      0.8652      6.6478
C      6.7198      1.0489      5.6097
32

O      6.0336      2.3772      2.3321
O      5.1239     -1.0979      2.0956
O      6.5145      4.6880      5.2034
O      7.0463     -1.5317      5.2151
O      8.9958     -1.4521      3.6082
O      9.2465     -0.2450      7.4077
O      5.3734      5.3810      3.4207
O      6.9167      0.2110      3.4084
H      6.6057     -2.4840      5.6094
H      9.0856      2.2349      6.6415
H      7.4128      2.2691      7.3572
H      5.8455      4.0635      5.8741
H      8.9050     -1.1830      7.5232
H      5.6119      0.7415      5.2086
H     10.7143     -0.2998      4.7745
H      9.6249     -1.4104      2.8821
H      7.3127      0.3825      7.8946
H      9.7848     -1.2730      5.4554
H      7.9186     -1.8563      5.6715
H      7.3693      3.1009      5.3634
H      6.7315      4.3915      2.2923
N      7.1745      4.1402      3.1177
C      5.1834     -0.1675      3.1178
C      9.6911     -0.6987      4.7344
C      6.8551      2.7227      3.4312
C      7.3217      0.1059      4.7915
C      8.8219      0.4218      5.0902
C      6.3947      4.6529      3.9664
C      7.0513      2.4225      4.8323
C      7.4687      1.1530      6.9343
C      8.8278      0.9030      6.5121
C      6.6997      1.1026      5.5986
