10

O      2.3034     10.2677      7.0640
H      1.3196     12.6973      5.5794
H      2.5041     12.0295      4.3469
H      5.2327      9.7895      7.7858
H      5.9284      9.6366      5.9053
H      4.2630     11.2062      4.8062
N      2.2564     11.9810      5.3471
N      4.9497      9.9005      6.5234
C      2.7521     10.9969      6.1536
C      4.1131     10.9568      5.9989
10

O      2.2991     10.2693      7.0563
H      1.4465     12.7025      5.6719
H      2.5173     12.0386      4.3535
H      5.1877      9.7609      7.7338
H      5.9110      9.6097      5.8541
H      4.1882     11.1462      4.7869
N      2.2390     11.9967      5.3766
N      4.9171      9.8884      6.5083
C      2.7437     11.0092      6.1401
C      4.1340     10.9588      5.9886
10

O      2.2930     10.2714      7.0484
H      1.5882     12.6868      5.7610
H      2.5328     12.0488      4.3706
H      5.1320      9.7503      7.6401
H      5.8562      9.5963      5.8234
H      4.1152     11.0664      4.7832
N      2.2198     12.0158      5.4056
N      4.8865      9.8758      6.4934
C      2.7362     11.0201      6.1286
C      4.1584     10.9626      5.9750
10

O      2.2854     10.2741      7.0403
H      1.7138     12.6786      5.8573
H      2.5481     12.0634      4.4037
H      5.0680      9.7569      7.5137
H      5.7653      9.5952      5.8152
H      4.0494     10.9710      4.7923
N      2.2009     12.0357      5.4325
N      4.8585      9.8623      6.4783
C      2.7304     11.0293      6.1195
C      4.1842     10.9683      5.9580
10

O      2.2770     10.2777      7.0317
H      1.7995     12.7095      5.9789
H      2.5621     12.0860      4.4523
H      5.0033      9.7778      7.3831
H      5.6480      9.6023      5.8273
H      3.9958     10.8659      4.8100
N      2.1842     12.0537      5.4560
N      4.8323      9.8477      6.4617
C      2.7268     11.0369      6.1135
C      4.2092     10.9752      5.9380
10

O      2.2680     10.2820      7.0227
H      1.8519     12.7779      6.1258
H      2.5762     12.1194      4.5103
H      4.9514      9.8085      7.3026
H      5.5264      9.6089      5.8479
H      3.9576     10.7582      4.8319
N      2.1692     12.0690      5.4763
N      4.8060      9.8321      6.4412
C      2.7259     11.0429      6.1106
C      4.2313     10.9817      5.9153
10

O      2.2587     10.2869      7.0130
H      1.8903     12.8568      6.2752
H      2.5932     12.1659      4.5687
H      4.9231      9.8483      7.3132
H      5.4366      9.6014      5.8526
H      3.9359     10.6560      4.8528
N      2.1543     12.0828      5.4956
N      4.7770      9.8163      6.4162
C      2.7275     11.0483      6.1105
C      4.2485     10.9856      5.8898
10

O      2.2490     10.2921      7.0027
H      1.9246     12.9299      6.4068
H      2.6163     12.2262      4.6199
H      4.9178      9.8988      7.3918
H      5.4091      9.5677      5.8180
H      3.9291     10.5678      4.8655
N      2.1391     12.0956      5.5157
N      4.7439      9.8006      6.3909
C      2.7315     11.0538      6.1128
C      4.2599     10.9863      5.8617
10

O      2.2392     10.2974      6.9921
H      1.9566     12.9968      6.5131
H      2.6463     12.2995      4.6619
H      4.9273      9.9561      7.4838
H      5.4377      9.5085      5.7499
H      3.9355     10.4998      4.8637
N      2.1236     12.1068      5.5373
N      4.7086      9.7859      6.3692
C      2.7374     11.0607      6.1167
C      4.2659     10.9848      5.8318
10

O      2.3034     10.2677      7.0640
H      1.3196     12.6973      5.5794
H      2.5041     12.0295      4.3469
H      5.2327      9.7895      7.7858
H      5.9284      9.6366      5.9053
H      4.2630     11.2062      4.8062
N      2.2564     11.9810      5.3471
N      4.9497      9.9005      6.5234
C      2.7521     10.9969      6.1536
C      4.1131     10.9568      5.9989
10

O      2.2991     10.2693      7.0563
H      1.4465     12.7025      5.6719
H      2.5173     12.0386      4.3535
H      5.1877      9.7609      7.7338
H      5.9110      9.6097      5.8541
H      4.1882     11.1462      4.7869
N      2.2390     11.9967      5.3766
N      4.9171      9.8884      6.5083
C      2.7437     11.0092      6.1401
C      4.1340     10.9588      5.9886
10

O      2.2930     10.2714      7.0484
H      1.5882     12.6868      5.7610
H      2.5328     12.0488      4.3706
H      5.1320      9.7503      7.6401
H      5.8562      9.5963      5.8234
H      4.1152     11.0664      4.7832
N      2.2198     12.0158      5.4056
N      4.8865      9.8758      6.4934
C      2.7362     11.0201      6.1286
C      4.1584     10.9626      5.9750
10

O      2.2854     10.2741      7.0403
H      1.7138     12.6786      5.8573
H      2.5481     12.0634      4.4037
H      5.0680      9.7569      7.5137
H      5.7653      9.5952      5.8152
H      4.0494     10.9710      4.7923
N      2.2009     12.0357      5.4325
N      4.8585      9.8623      6.4783
C      2.7304     11.0293      6.1195
C      4.1842     10.9683      5.9580
10

O      2.2770     10.2777      7.0317
H      1.7995     12.7095      5.9789
H      2.5621     12.0860      4.4523
H      5.0033      9.7778      7.3831
H      5.6480      9.6023      5.8273
H      3.9958     10.8659      4.8100
N      2.1842     12.0537      5.4560
N      4.8323      9.8477      6.4617
C      2.7268     11.0369      6.1135
C      4.2092     10.9752      5.9380
10

O      2.2680     10.2820      7.0227
H      1.8519     12.7779      6.1258
H      2.5762     12.1194      4.5103
H      4.9514      9.8085      7.3026
H      5.5264      9.6089      5.8479
H      3.9576     10.7582      4.8319
N      2.1692     12.0690      5.4763
N      4.8060      9.8321      6.4412
C      2.7259     11.0429      6.1106
C      4.2313     10.9817      5.9153
10

O      2.2587     10.2869      7.0130
H      1.8903     12.8568      6.2752
H      2.5932     12.1659      4.5687
H      4.9231      9.8483      7.3132
H      5.4366      9.6014      5.8526
H      3.9359     10.6560      4.8528
N      2.1543     12.0828      5.4956
N      4.7770      9.8163      6.4162
C      2.7275     11.0483      6.1105
C      4.2485     10.9856      5.8898
10

O      2.2490     10.2921      7.0027
H      1.9246     12.9299      6.4068
H      2.6163     12.2262      4.6199
H      4.9178      9.8988      7.3918
H      5.4091      9.5677      5.8180
H      3.9291     10.5678      4.8655
N      2.1391     12.0956      5.5157
N      4.7439      9.8006      6.3909
C      2.7315     11.0538      6.1128
C      4.2599     10.9863      5.8617
10

O      2.2392     10.2974      6.9921
H      1.9566     12.9968      6.5131
H      2.6463     12.2995      4.6619
H      4.9273      9.9561      7.4838
H      5.4377      9.5085      5.7499
H      3.9355     10.4998      4.8637
N      2.1236     12.1068      5.5373
N      4.7086      9.7859      6.3692
C      2.7374     11.0607      6.1167
C      4.2659     10.9848      5.8318
