16

O      5.4195      2.0562     10.2804
O      2.7765     -0.4785      7.2545
O      3.5434      2.5105      9.2884
H      1.7880      0.8309      4.4699
H      4.7011      1.1042      5.2426
H      6.1233      3.8832      8.4846
H      4.1532     -0.9279      5.0951
H      6.1172      1.6430      6.4664
H      3.3553      0.8879      3.5862
N      5.6186      3.0085      8.4008
N      2.8710      0.7254      4.5407
N      4.3183      1.1277      7.7510
C      3.9599      0.1050      5.4495
C      4.8813      2.4721      9.2859
C      5.2685      1.8789      7.1772
C      3.7705      0.1774      6.9372
16

O      5.4310      2.0480     10.2776
O      2.7922     -0.4887      7.2500
O      3.5465      2.5099      9.2903
H      1.8296      0.7534      4.4881
H      4.7680      1.0050      5.2462
H      6.0418      3.9383      8.5568
H      4.1680     -0.8726      5.0335
H      6.1570      1.5996      6.4897
H      3.3622      0.9779      3.6273
N      5.6187      2.9843      8.3831
N      2.8757      0.7190      4.5241
N      4.3343      1.1170      7.7554
C      3.9626      0.1026      5.4388
C      4.8724      2.5006      9.2887
C      5.2576      1.8777      7.1725
C      3.7851      0.1984      6.9567
16

O      5.4413      2.0392     10.2732
O      2.8092     -0.4972      7.2457
O      3.5511      2.5056      9.2952
H      1.8990      0.6731      4.5089
H      4.8313      0.8884      5.2479
H      5.9711      3.9946      8.6174
H      4.1818     -0.8271      4.9829
H      6.1876      1.5622      6.5177
H      3.3579      1.0734      3.6774
N      5.6199      2.9587      8.3605
N      2.8816      0.7135      4.5081
N      4.3521      1.1052      7.7589
C      3.9653      0.1040      5.4289
C      4.8615      2.5292      9.2964
C      5.2473      1.8800      7.1683
C      3.7969      0.2157      6.9729
16

O      5.4503      2.0304     10.2669
O      2.8274     -0.5041      7.2419
O      3.5577      2.4961      9.3044
H      1.9697      0.5913      4.5317
H      4.8873      0.7592      5.2470
H      5.9125      4.0419      8.6606
H      4.1943     -0.8005      4.9448
H      6.2082      1.5316      6.5516
H      3.3474      1.1765      3.7266
N      5.6222      2.9327      8.3340
N      2.8905      0.7090      4.4938
N      4.3716      1.0930      7.7626
C      3.9682      0.1095      5.4202
C      4.8506      2.5572      9.3084
C      5.2378      1.8858      7.1643
C      3.8054      0.2281      6.9849
16

O      5.4582      2.0216     10.2586
O      2.8467     -0.5097      7.2388
O      3.5635      2.4862      9.3157
H      2.0126      0.5047      4.5574
H      4.9363      0.6279      5.2428
H      5.8713      4.0747      8.6822
H      4.2039     -0.7967      4.9211
H      6.2184      1.5086      6.5908
H      3.3338      1.2890      3.7696
N      5.6250      2.9062      8.3048
N      2.9046      0.7056      4.4816
N      4.3932      1.0805      7.7668
C      3.9711      0.1183      5.4127
C      4.8415      2.5844      9.3234
C      5.2297      1.8951      7.1607
C      3.8103      0.2348      6.9920
16

O      5.4654      2.0130     10.2486
O      2.8668     -0.5144      7.2367
O      3.5673      2.4787      9.3280
H      2.0213      0.4104      4.5869
H      4.9807      0.5049      5.2344
H      5.8541      4.0917      8.6811
H      4.2072     -0.8147      4.9149
H      6.2176      1.4933      6.6337
H      3.3160      1.4084      3.8082
N      5.6277      2.8793      8.2736
N      2.9245      0.7037      4.4712
N      4.4169      1.0673      7.7720
C      3.9741      0.1296      5.4060
C      4.8352      2.6102      9.3399
C      5.2232      1.9083      7.1577
C      3.8119      0.2360      6.9941
16

O      5.4722      2.0049     10.2371
O      2.8871     -0.5186      7.2356
O      3.5689      2.4739      9.3409
H      2.0185      0.3141      4.6184
H      5.0226      0.3984      5.2221
H      5.8655      4.0935      8.6584
H      4.2001     -0.8491      4.9287
H      6.2060      1.4862      6.6775
H      3.2913      1.5248      3.8493
N      5.6298      2.8519      8.2413
N      2.9488      0.7034      4.4627
N      4.4421      1.0531      7.7780
C      3.9772      0.1420      5.3996
C      4.8319      2.6340      9.3565
C      5.2183      1.9258      7.1556
C      3.8109      0.2325      6.9912
16

O      5.4793      1.9976     10.2244
O      2.9070     -0.5230      7.2357
O      3.5688      2.4709      9.3532
H      2.0293      0.2260      4.6481
H      5.0604      0.3133      5.2066
H      5.9061      4.0801      8.6174
H      4.1792     -0.8925      4.9633
H      6.1851      1.4872      6.7184
H      3.2579      1.6247      3.9005
N      5.6310      2.8244      8.2087
N      2.9751      0.7046      4.4561
N      4.4683      1.0373      7.7844
C      3.9810      0.1548      5.3933
C      4.8314      2.6552      9.3720
C      5.2149      1.9472      7.1545
C      3.8083      0.2257      6.9839
16

O      5.4869      1.9912     10.2108
O      2.9262     -0.5283      7.2371
O      3.5671      2.4692      9.3637
H      2.0664      0.1559      4.6728
H      5.0899      0.2516      5.1893
H      5.9711      4.0498      8.5626
H      4.1431     -0.9373      5.0165
H      6.1580      1.4955      6.7517
H      3.2154      1.6982      3.9660
N      5.6313      2.7982      8.1767
N      3.0021      0.7070      4.4516
N      4.4947      1.0193      7.7908
C      3.9859      0.1672      5.3868
C      4.8332      2.6733      9.3855
C      5.2123      1.9717      7.1546
C      3.8056      0.2172      6.9725
16

O      5.4954      1.9857     10.1965
O      2.9438     -0.5350      7.2399
O      3.5638      2.4685      9.3718
H      2.1312      0.1104      4.6907
H      5.1072      0.2135      5.1717
H      6.0513      3.9987      8.4984
H      4.0921     -0.9761      5.0850
H      6.1316      1.5079      6.7700
H      3.1644      1.7402      4.0468
N      5.6315      2.7750      8.1467
N      3.0288      0.7102      4.4489
N      4.5203      0.9984      7.7964
C      3.9926      0.1785      5.3802
C      4.8364      2.6878      9.3960
C      5.2099      1.9977      7.1555
C      3.8040      0.2087      6.9577
16

O      5.5051      1.9810     10.1818
O      2.9596     -0.5438      7.2440
O      3.5591      2.4689      9.3772
H      2.2175      0.0915      4.7016
H      5.1101      0.1977      5.1552
H      6.1350      3.9203      8.4280
H      4.0286     -1.0027      5.1639
H      6.1139      1.5212      6.7661
H      3.1062      1.7510      4.1410
N      5.6324      2.7571      8.1204
N      3.0547      0.7141      4.4478
N      4.5446      0.9744      7.8009
C      4.0015      0.1881      5.3738
C      4.8407      2.6988      9.4033
C      5.2063      2.0232      7.1562
C      3.8047      0.2016      6.9401
16

O      5.5161      1.9771     10.1670
O      2.9732     -0.5548      7.2491
O      3.5532      2.4700      9.3799
H      2.3130      0.0961      4.7059
H      5.1000      0.2018      5.1408
H      6.2129      3.8094      8.3523
H      3.9566     -1.0128      5.2473
H      6.1079      1.5335      6.7372
H      3.0425      1.7371      4.2450
N      5.6351      2.7461      8.0994
N      3.0800      0.7184      4.4482
N      4.5670      0.9473      7.8036
C      4.0127      0.1953      5.3683
C      4.8453      2.7066      9.4073
C      5.2006      2.0459      7.1553
C      3.8085      0.1969      6.9203
16

O      5.5286      1.9738     10.1524
O      2.9848     -0.5683      7.2551
O      3.5465      2.4718      9.3798
H      2.3984      0.1128      4.7061
H      5.0823      0.2221      5.1289
H      6.2824      3.6675      8.2712
H      3.8812     -1.0037      5.3286
H      6.1112      1.5459      6.6844
H      2.9745      1.7114      4.3540
N      5.6404      2.7430      8.0853
N      3.1049      0.7230      4.4497
N      4.5873      0.9174      7.8042
C      4.0260      0.1998      5.3645
C      4.8502      2.7117      9.4079
C      5.1925      2.0637      7.1516
C      3.8160      0.1953      6.8990
16

O      5.5427      1.9706     10.1383
O      2.9944     -0.5840      7.2616
O      3.5389      2.4740      9.3772
H      2.4551      0.1252      4.7068
H      5.0656      0.2546      5.1191
H      6.3471      3.5053      8.1853
H      3.8083     -0.9760      5.4008
H      6.1166      1.5613      6.6134
H      2.9024      1.6899      4.4642
N      5.6486      2.7470      8.0789
N      3.1305      0.7281      4.4521
N      4.6057      0.8855      7.8024
C      4.0405      0.2014      5.3631
C      4.8551      2.7144      9.4050
C      5.1820      2.0752      7.1440
C      3.8274      0.1972      6.8773
16

O      5.5582      1.9674     10.1251
O      3.0022     -0.6013      7.2686
O      3.5308      2.4768      9.3725
H      2.4734      0.1219      4.7107
H      5.0595      0.2957      5.1110
H      6.4201      3.3407      8.0965
H      3.7435     -0.9332      5.4577
H      6.1153      1.5836      6.5325
H      2.8270      1.6795      4.5745
N      5.6586      2.7558      8.0803
N      3.1570      0.7341      4.4547
N      4.6223      0.8525      7.7977
C      4.0551      0.2000      5.3645
C      4.8601      2.7148      9.3984
C      5.1699      2.0796      7.1323
C      3.8426      0.2025      6.8563
16

O      5.5751      1.9641     10.1131
O      3.0082     -0.6196      7.2760
O      3.5231      2.4803      9.3666
H      2.4595      0.1047      4.7146
H      5.0698      0.3420      5.1044
H      6.5224      3.1874      8.0065
H      3.6918     -0.8812      5.4960
H      6.1010      1.6166      6.4505
H      2.7530      1.6731      4.6846
N      5.6684      2.7667      8.0883
N      3.1835      0.7416      4.4575
N      4.6375      0.8193      7.7899
C      4.0692      0.1958      5.3689
C      4.8655      2.7128      9.3877
C      5.1572      2.0770      7.1172
C      3.8613      0.2108      6.8374
16

O      5.5929      1.9608     10.1026
O      3.0127     -0.6381      7.2836
O      3.5172      2.4853      9.3618
H      2.4300      0.0858      4.7116
H      5.0958      0.3903      5.1008
H      6.6567      3.0421      7.9191
H      3.6572     -0.8287      5.5176
H      6.0697      1.6632      6.3763
H      2.6883      1.6590      4.7909
N      5.6769      2.7789      8.1012
N      3.2077      0.7509      4.4608
N      4.6514      0.7864      7.7790
C      4.0829      0.1893      5.3759
C      4.8716      2.7080      9.3727
C      5.1455      2.0675      7.1001
C      3.8830      0.2212      6.8214
16

O      5.6113      1.9581     10.0935
O      3.0158     -0.6562      7.2913
O      3.5147      2.4924      9.3599
H      2.4012      0.0769      4.6955
H      5.1306      0.4369      5.1027
H      6.7943      2.8939      7.8438
H      3.6412     -0.7861      5.5247
H      6.0207      1.7225      6.3158
H      2.6406      1.6301      4.8885
N      5.6855      2.7923      8.1164
N      3.2280      0.7622      4.4653
N      4.6645      0.7544      7.7648
C      4.0969      0.1815      5.3846
C      4.8789      2.6996      9.3538
C      5.1363      2.0518      7.0830
C      3.9067      0.2327      6.8094
16

O      5.6296      1.9562     10.0857
O      3.0178     -0.6735      7.2990
O      3.5157      2.5011      9.3606
H      2.3842      0.0849      4.6635
H      5.1650      0.4775      5.1117
H      6.9067      2.7412      7.7901
H      3.6427     -0.7645      5.5192
H      5.9566      1.7908      6.2722
H      2.6151      1.5865      4.9723
N      5.6950      2.8063      8.1314
N      3.2435      0.7752      4.4713
N      4.6770      0.7238      7.7478
C      4.1122      0.1732      5.3938
C      4.8881      2.6869      9.3318
C      5.1306      2.0314      7.0672
C      3.9311      0.2442      6.8018
16

O      5.6473      1.9553     10.0788
O      3.0186     -0.6896      7.3063
O      3.5187      2.5108      9.3615
H      2.3857      0.1110      4.6156
H      5.1917      0.5088      5.1283
H      6.9846      2.5900      7.7607
H      3.6595     -0.7720      5.5030
H      5.8833      1.8628      6.2449
H      2.6141      1.5326      5.0393
N      5.7056      2.8198      8.1442
N      3.2541      0.7897      4.4792
N      4.6899      0.6954      7.7286
C      4.1290      0.1655      5.4023
C      4.8993      2.6699      9.3079
C      5.1283      2.0083      7.0537
C      3.9548      0.2544      6.7985
16

O      5.4195      2.0562     10.2804
O      2.7765     -0.4785      7.2545
O      3.5434      2.5105      9.2884
H      1.7880      0.8309      4.4699
H      4.7011      1.1042      5.2426
H      6.1233      3.8832      8.4846
H      4.1532     -0.9279      5.0951
H      6.1172      1.6430      6.4664
H      3.3553      0.8879      3.5862
N      5.6186      3.0085      8.4008
N      2.8710      0.7254      4.5407
N      4.3183      1.1277      7.7510
C      3.9599      0.1050      5.4495
C      4.8813      2.4721      9.2859
C      5.2685      1.8789      7.1772
C      3.7705      0.1774      6.9372
16

O      5.4310      2.0480     10.2776
O      2.7922     -0.4887      7.2500
O      3.5465      2.5099      9.2903
H      1.8296      0.7534      4.4881
H      4.7680      1.0050      5.2462
H      6.0418      3.9383      8.5568
H      4.1680     -0.8726      5.0335
H      6.1570      1.5996      6.4897
H      3.3622      0.9779      3.6273
N      5.6187      2.9843      8.3831
N      2.8757      0.7190      4.5241
N      4.3343      1.1170      7.7554
C      3.9626      0.1026      5.4388
C      4.8724      2.5006      9.2887
C      5.2576      1.8777      7.1725
C      3.7851      0.1984      6.9567
16

O      5.4413      2.0392     10.2732
O      2.8092     -0.4972      7.2457
O      3.5511      2.5056      9.2952
H      1.8990      0.6731      4.5089
H      4.8313      0.8884      5.2479
H      5.9711      3.9946      8.6174
H      4.1818     -0.8271      4.9829
H      6.1876      1.5622      6.5177
H      3.3579      1.0734      3.6774
N      5.6199      2.9587      8.3605
N      2.8816      0.7135      4.5081
N      4.3521      1.1052      7.7589
C      3.9653      0.1040      5.4289
C      4.8615      2.5292      9.2964
C      5.2473      1.8800      7.1683
C      3.7969      0.2157      6.9729
16

O      5.4503      2.0304     10.2669
O      2.8274     -0.5041      7.2419
O      3.5577      2.4961      9.3044
H      1.9697      0.5913      4.5317
H      4.8873      0.7592      5.2470
H      5.9125      4.0419      8.6606
H      4.1943     -0.8005      4.9448
H      6.2082      1.5316      6.5516
H      3.3474      1.1765      3.7266
N      5.6222      2.9327      8.3340
N      2.8905      0.7090      4.4938
N      4.3716      1.0930      7.7626
C      3.9682      0.1095      5.4202
C      4.8506      2.5572      9.3084
C      5.2378      1.8858      7.1643
C      3.8054      0.2281      6.9849
16

O      5.4582      2.0216     10.2586
O      2.8467     -0.5097      7.2388
O      3.5635      2.4862      9.3157
H      2.0126      0.5047      4.5574
H      4.9363      0.6279      5.2428
H      5.8713      4.0747      8.6822
H      4.2039     -0.7967      4.9211
H      6.2184      1.5086      6.5908
H      3.3338      1.2890      3.7696
N      5.6250      2.9062      8.3048
N      2.9046      0.7056      4.4816
N      4.3932      1.0805      7.7668
C      3.9711      0.1183      5.4127
C      4.8415      2.5844      9.3234
C      5.2297      1.8951      7.1607
C      3.8103      0.2348      6.9920
16

O      5.4654      2.0130     10.2486
O      2.8668     -0.5144      7.2367
O      3.5673      2.4787      9.3280
H      2.0213      0.4104      4.5869
H      4.9807      0.5049      5.2344
H      5.8541      4.0917      8.6811
H      4.2072     -0.8147      4.9149
H      6.2176      1.4933      6.6337
H      3.3160      1.4084      3.8082
N      5.6277      2.8793      8.2736
N      2.9245      0.7037      4.4712
N      4.4169      1.0673      7.7720
C      3.9741      0.1296      5.4060
C      4.8352      2.6102      9.3399
C      5.2232      1.9083      7.1577
C      3.8119      0.2360      6.9941
16

O      5.4722      2.0049     10.2371
O      2.8871     -0.5186      7.2356
O      3.5689      2.4739      9.3409
H      2.0185      0.3141      4.6184
H      5.0226      0.3984      5.2221
H      5.8655      4.0935      8.6584
H      4.2001     -0.8491      4.9287
H      6.2060      1.4862      6.6775
H      3.2913      1.5248      3.8493
N      5.6298      2.8519      8.2413
N      2.9488      0.7034      4.4627
N      4.4421      1.0531      7.7780
C      3.9772      0.1420      5.3996
C      4.8319      2.6340      9.3565
C      5.2183      1.9258      7.1556
C      3.8109      0.2325      6.9912
16

O      5.4793      1.9976     10.2244
O      2.9070     -0.5230      7.2357
O      3.5688      2.4709      9.3532
H      2.0293      0.2260      4.6481
H      5.0604      0.3133      5.2066
H      5.9061      4.0801      8.6174
H      4.1792     -0.8925      4.9633
H      6.1851      1.4872      6.7184
H      3.2579      1.6247      3.9005
N      5.6310      2.8244      8.2087
N      2.9751      0.7046      4.4561
N      4.4683      1.0373      7.7844
C      3.9810      0.1548      5.3933
C      4.8314      2.6552      9.3720
C      5.2149      1.9472      7.1545
C      3.8083      0.2257      6.9839
16

O      5.4869      1.9912     10.2108
O      2.9262     -0.5283      7.2371
O      3.5671      2.4692      9.3637
H      2.0664      0.1559      4.6728
H      5.0899      0.2516      5.1893
H      5.9711      4.0498      8.5626
H      4.1431     -0.9373      5.0165
H      6.1580      1.4955      6.7517
H      3.2154      1.6982      3.9660
N      5.6313      2.7982      8.1767
N      3.0021      0.7070      4.4516
N      4.4947      1.0193      7.7908
C      3.9859      0.1672      5.3868
C      4.8332      2.6733      9.3855
C      5.2123      1.9717      7.1546
C      3.8056      0.2172      6.9725
16

O      5.4954      1.9857     10.1965
O      2.9438     -0.5350      7.2399
O      3.5638      2.4685      9.3718
H      2.1312      0.1104      4.6907
H      5.1072      0.2135      5.1717
H      6.0513      3.9987      8.4984
H      4.0921     -0.9761      5.0850
H      6.1316      1.5079      6.7700
H      3.1644      1.7402      4.0468
N      5.6315      2.7750      8.1467
N      3.0288      0.7102      4.4489
N      4.5203      0.9984      7.7964
C      3.9926      0.1785      5.3802
C      4.8364      2.6878      9.3960
C      5.2099      1.9977      7.1555
C      3.8040      0.2087      6.9577
16

O      5.5051      1.9810     10.1818
O      2.9596     -0.5438      7.2440
O      3.5591      2.4689      9.3772
H      2.2175      0.0915      4.7016
H      5.1101      0.1977      5.1552
H      6.1350      3.9203      8.4280
H      4.0286     -1.0027      5.1639
H      6.1139      1.5212      6.7661
H      3.1062      1.7510      4.1410
N      5.6324      2.7571      8.1204
N      3.0547      0.7141      4.4478
N      4.5446      0.9744      7.8009
C      4.0015      0.1881      5.3738
C      4.8407      2.6988      9.4033
C      5.2063      2.0232      7.1562
C      3.8047      0.2016      6.9401
16

O      5.5161      1.9771     10.1670
O      2.9732     -0.5548      7.2491
O      3.5532      2.4700      9.3799
H      2.3130      0.0961      4.7059
H      5.1000      0.2018      5.1408
H      6.2129      3.8094      8.3523
H      3.9566     -1.0128      5.2473
H      6.1079      1.5335      6.7372
H      3.0425      1.7371      4.2450
N      5.6351      2.7461      8.0994
N      3.0800      0.7184      4.4482
N      4.5670      0.9473      7.8036
C      4.0127      0.1953      5.3683
C      4.8453      2.7066      9.4073
C      5.2006      2.0459      7.1553
C      3.8085      0.1969      6.9203
16

O      5.5286      1.9738     10.1524
O      2.9848     -0.5683      7.2551
O      3.5465      2.4718      9.3798
H      2.3984      0.1128      4.7061
H      5.0823      0.2221      5.1289
H      6.2824      3.6675      8.2712
H      3.8812     -1.0037      5.3286
H      6.1112      1.5459      6.6844
H      2.9745      1.7114      4.3540
N      5.6404      2.7430      8.0853
N      3.1049      0.7230      4.4497
N      4.5873      0.9174      7.8042
C      4.0260      0.1998      5.3645
C      4.8502      2.7117      9.4079
C      5.1925      2.0637      7.1516
C      3.8160      0.1953      6.8990
16

O      5.5427      1.9706     10.1383
O      2.9944     -0.5840      7.2616
O      3.5389      2.4740      9.3772
H      2.4551      0.1252      4.7068
H      5.0656      0.2546      5.1191
H      6.3471      3.5053      8.1853
H      3.8083     -0.9760      5.4008
H      6.1166      1.5613      6.6134
H      2.9024      1.6899      4.4642
N      5.6486      2.7470      8.0789
N      3.1305      0.7281      4.4521
N      4.6057      0.8855      7.8024
C      4.0405      0.2014      5.3631
C      4.8551      2.7144      9.4050
C      5.1820      2.0752      7.1440
C      3.8274      0.1972      6.8773
16

O      5.5582      1.9674     10.1251
O      3.0022     -0.6013      7.2686
O      3.5308      2.4768      9.3725
H      2.4734      0.1219      4.7107
H      5.0595      0.2957      5.1110
H      6.4201      3.3407      8.0965
H      3.7435     -0.9332      5.4577
H      6.1153      1.5836      6.5325
H      2.8270      1.6795      4.5745
N      5.6586      2.7558      8.0803
N      3.1570      0.7341      4.4547
N      4.6223      0.8525      7.7977
C      4.0551      0.2000      5.3645
C      4.8601      2.7148      9.3984
C      5.1699      2.0796      7.1323
C      3.8426      0.2025      6.8563
16

O      5.5751      1.9641     10.1131
O      3.0082     -0.6196      7.2760
O      3.5231      2.4803      9.3666
H      2.4595      0.1047      4.7146
H      5.0698      0.3420      5.1044
H      6.5224      3.1874      8.0065
H      3.6918     -0.8812      5.4960
H      6.1010      1.6166      6.4505
H      2.7530      1.6731      4.6846
N      5.6684      2.7667      8.0883
N      3.1835      0.7416      4.4575
N      4.6375      0.8193      7.7899
C      4.0692      0.1958      5.3689
C      4.8655      2.7128      9.3877
C      5.1572      2.0770      7.1172
C      3.8613      0.2108      6.8374
16

O      5.5929      1.9608     10.1026
O      3.0127     -0.6381      7.2836
O      3.5172      2.4853      9.3618
H      2.4300      0.0858      4.7116
H      5.0958      0.3903      5.1008
H      6.6567      3.0421      7.9191
H      3.6572     -0.8287      5.5176
H      6.0697      1.6632      6.3763
H      2.6883      1.6590      4.7909
N      5.6769      2.7789      8.1012
N      3.2077      0.7509      4.4608
N      4.6514      0.7864      7.7790
C      4.0829      0.1893      5.3759
C      4.8716      2.7080      9.3727
C      5.1455      2.0675      7.1001
C      3.8830      0.2212      6.8214
16

O      5.6113      1.9581     10.0935
O      3.0158     -0.6562      7.2913
O      3.5147      2.4924      9.3599
H      2.4012      0.0769      4.6955
H      5.1306      0.4369      5.1027
H      6.7943      2.8939      7.8438
H      3.6412     -0.7861      5.5247
H      6.0207      1.7225      6.3158
H      2.6406      1.6301      4.8885
N      5.6855      2.7923      8.1164
N      3.2280      0.7622      4.4653
N      4.6645      0.7544      7.7648
C      4.0969      0.1815      5.3846
C      4.8789      2.6996      9.3538
C      5.1363      2.0518      7.0830
C      3.9067      0.2327      6.8094
16

O      5.6296      1.9562     10.0857
O      3.0178     -0.6735      7.2990
O      3.5157      2.5011      9.3606
H      2.3842      0.0849      4.6635
H      5.1650      0.4775      5.1117
H      6.9067      2.7412      7.7901
H      3.6427     -0.7645      5.5192
H      5.9566      1.7908      6.2722
H      2.6151      1.5865      4.9723
N      5.6950      2.8063      8.1314
N      3.2435      0.7752      4.4713
N      4.6770      0.7238      7.7478
C      4.1122      0.1732      5.3938
C      4.8881      2.6869      9.3318
C      5.1306      2.0314      7.0672
C      3.9311      0.2442      6.8018
16

O      5.6473      1.9553     10.0788
O      3.0186     -0.6896      7.3063
O      3.5187      2.5108      9.3615
H      2.3857      0.1110      4.6156
H      5.1917      0.5088      5.1283
H      6.9846      2.5900      7.7607
H      3.6595     -0.7720      5.5030
H      5.8833      1.8628      6.2449
H      2.6141      1.5326      5.0393
N      5.7056      2.8198      8.1442
N      3.2541      0.7897      4.4792
N      4.6899      0.6954      7.7286
C      4.1290      0.1655      5.4023
C      4.8993      2.6699      9.3079
C      5.1283      2.0083      7.0537
C      3.9548      0.2544      6.7985
