17

O      5.8443      3.3494     10.2457
O      3.5710      2.8507      9.3666
O      5.2932     -1.8727      5.9459
H      3.9065      1.7789      4.0630
H      6.0031     -1.8232      6.8490
H      6.1569      0.4705      7.3548
H      6.4890      2.8703      8.0576
H      3.4598     -0.5344      4.9271
H      5.7671      2.1059      6.3706
H      4.4396      1.6797      5.4467
N      5.4882      2.5292      8.3765
N      4.6157      1.3196      4.4710
N      5.2254      0.3917      6.9943
C      4.4801     -0.0476      4.7344
C      4.9001      2.9636      9.4764
C      4.9075      2.2530      7.1319
C      4.7530     -0.2047      6.1041
17

O      5.8443      3.3494     10.2457
O      3.5710      2.8507      9.3666
O      5.2932     -1.8727      5.9459
H      3.9065      1.7789      4.0630
H      6.0031     -1.8232      6.8490
H      6.1569      0.4705      7.3548
H      6.4890      2.8703      8.0576
H      3.4598     -0.5344      4.9271
H      5.7671      2.1059      6.3706
H      4.4396      1.6797      5.4467
N      5.4882      2.5292      8.3765
N      4.6157      1.3196      4.4710
N      5.2254      0.3917      6.9943
C      4.4801     -0.0476      4.7344
C      4.9001      2.9636      9.4764
C      4.9075      2.2530      7.1319
C      4.7530     -0.2047      6.1041
