10

O      6.4453      8.6444      4.5096
O      5.1275      5.6157      4.2254
O      4.2898      8.1824      3.8538
O      3.8617      6.7865      5.5839
H      5.9251      8.0642      2.4737
H      5.8570      4.8720      4.8591
H      3.9277      4.7918      5.6629
H      4.0167      7.6723      4.6747
C      5.8215      8.1620      3.6047
C      4.0671      5.7226      5.0578
10

O      6.4245      8.6353      4.5239
O      5.1362      5.6171      4.2161
O      4.2931      8.1829      3.8498
O      3.8567      6.7823      5.5795
H      5.9948      8.1745      2.4774
H      5.7757      4.9378      4.8600
H      3.9752      4.8393      5.6962
H      4.0284      7.6817      4.7447
C      5.8284      8.1597      3.5941
C      4.0639      5.7263      5.0732
10

O      6.4045      8.6257      4.5380
O      5.1463      5.6171      4.2076
O      4.3022      8.1812      3.8442
O      3.8510      6.7796      5.5761
H      6.0693      8.2851      2.4864
H      5.6818      5.0201      4.8317
H      4.0007      4.8858      5.7249
H      4.0440      7.6949      4.8152
C      5.8314      8.1589      3.5847
C      4.0612      5.7287      5.0872
10

O      6.3855      8.6154      4.5521
O      5.1564      5.6168      4.1994
O      4.3166      8.1769      3.8374
O      3.8446      6.7787      5.5740
H      6.1450      8.3929      2.5005
H      5.5912      5.1019      4.7881
H      4.0042      4.9226      5.7562
H      4.0667      7.7168      4.8749
C      5.8308      8.1598      3.5765
C      4.0594      5.7299      5.0982
10

O      6.3676      8.6044      4.5658
O      5.1641      5.6183      4.1895
O      4.3357      8.1699      3.8297
O      3.8373      6.7803      5.5733
H      6.2171      8.4939      2.5212
H      5.5341      5.1475      4.7687
H      3.9871      4.9440      5.7954
H      4.0978      7.7487      4.9161
C      5.8273      8.1629      3.5697
C      4.0587      5.7298      5.1048
10

O      6.3507      8.5925      4.5793
O      5.1678      5.6235      4.1759
O      4.3590      8.1604      3.8210
O      3.8294      6.7845      5.5741
H      6.2804      8.5833      2.5504
H      5.5342      5.1278      4.8088
H      3.9519      4.9495      5.8425
H      4.1377      7.7890      4.9355
C      5.8215      8.1685      3.5645
C      4.0591      5.7284      5.1065
10

O      6.3351      8.5796      4.5923
O      5.1687      5.6309      4.1605
O      4.3855      8.1485      3.8112
O      3.8212      6.7918      5.5760
H      6.3303      8.6566      2.5893
H      5.5731      5.0666      4.8808
H      3.9014      4.9434      5.8921
H      4.1855      7.8340      4.9328
C      5.8143      8.1770      3.5608
C      4.0600      5.7252      5.1037
10

O      6.4453      8.6444      4.5096
O      5.1275      5.6157      4.2254
O      4.2898      8.1824      3.8538
O      3.8617      6.7865      5.5839
H      5.9251      8.0642      2.4737
H      5.8570      4.8720      4.8591
H      3.9277      4.7918      5.6629
H      4.0167      7.6723      4.6747
C      5.8215      8.1620      3.6047
C      4.0671      5.7226      5.0578
10

O      6.4245      8.6353      4.5239
O      5.1362      5.6171      4.2161
O      4.2931      8.1829      3.8498
O      3.8567      6.7823      5.5795
H      5.9948      8.1745      2.4774
H      5.7757      4.9378      4.8600
H      3.9752      4.8393      5.6962
H      4.0284      7.6817      4.7447
C      5.8284      8.1597      3.5941
C      4.0639      5.7263      5.0732
10

O      6.4045      8.6257      4.5380
O      5.1463      5.6171      4.2076
O      4.3022      8.1812      3.8442
O      3.8510      6.7796      5.5761
H      6.0693      8.2851      2.4864
H      5.6818      5.0201      4.8317
H      4.0007      4.8858      5.7249
H      4.0440      7.6949      4.8152
C      5.8314      8.1589      3.5847
C      4.0612      5.7287      5.0872
10

O      6.3855      8.6154      4.5521
O      5.1564      5.6168      4.1994
O      4.3166      8.1769      3.8374
O      3.8446      6.7787      5.5740
H      6.1450      8.3929      2.5005
H      5.5912      5.1019      4.7881
H      4.0042      4.9226      5.7562
H      4.0667      7.7168      4.8749
C      5.8308      8.1598      3.5765
C      4.0594      5.7299      5.0982
10

O      6.3676      8.6044      4.5658
O      5.1641      5.6183      4.1895
O      4.3357      8.1699      3.8297
O      3.8373      6.7803      5.5733
H      6.2171      8.4939      2.5212
H      5.5341      5.1475      4.7687
H      3.9871      4.9440      5.7954
H      4.0978      7.7487      4.9161
C      5.8273      8.1629      3.5697
C      4.0587      5.7298      5.1048
10

O      6.3507      8.5925      4.5793
O      5.1678      5.6235      4.1759
O      4.3590      8.1604      3.8210
O      3.8294      6.7845      5.5741
H      6.2804      8.5833      2.5504
H      5.5342      5.1278      4.8088
H      3.9519      4.9495      5.8425
H      4.1377      7.7890      4.9355
C      5.8215      8.1685      3.5645
C      4.0591      5.7284      5.1065
10

O      6.3351      8.5796      4.5923
O      5.1687      5.6309      4.1605
O      4.3855      8.1485      3.8112
O      3.8212      6.7918      5.5760
H      6.3303      8.6566      2.5893
H      5.5731      5.0666      4.8808
H      3.9014      4.9434      5.8921
H      4.1855      7.8340      4.9328
C      5.8143      8.1770      3.5608
C      4.0600      5.7252      5.1037
