28

O      5.6481      2.1535      3.1024
O      6.4367      4.9575      5.2490
O      6.3938     -1.0047      4.7611
O      9.1637     -1.6655      3.5530
O      9.3600      0.1408      7.4220
O      5.4008      5.7730      3.4127
O      7.1432      0.1765      3.0787
H      6.9672      1.5352      7.4365
H      6.6580      0.9506      2.7169
H      6.7341      4.0811      5.2278
H     10.0475     -0.1008      6.6002
H      5.4867      1.3018      4.7839
H     10.2800     -0.6945      4.5690
H      9.1862     -1.3529      2.5515
H      6.0988      0.1193      7.3152
H      9.4494     -1.8743      5.6188
H      5.9996     -1.0375      3.8366
H      8.1294      2.9590      5.3731
N      7.2034      4.1457      3.3016
C      9.4276     -0.9934      4.7981
C      6.6468      2.7973      3.7309
C      7.1383      0.1049      4.3672
C      8.4068     -0.0199      5.1012
C      6.3466      4.9627      4.0020
C      7.3037      2.4052      4.8157
C      6.8819      0.6153      6.8306
C      8.2769     -0.1107      6.7501
C      6.5471      1.2257      5.2881
28

O      5.6492      2.1597      3.1083
O      6.4447      4.9479      5.2631
O      6.3734     -0.9842      4.7363
O      9.1483     -1.6513      3.5626
O      9.3488      0.1534      7.4224
O      5.4118      5.7916      3.4142
O      7.1367      0.1612      3.0701
H      6.9443      1.5304      7.4232
H      6.6620      1.0690      2.6599
H      6.7263      4.0672      5.1819
H      9.9755     -0.0753      6.5993
H      5.5850      1.3409      4.7773
H     10.3253     -0.6127      4.6675
H      9.1182     -1.3628      2.5859
H      6.1289      0.1946      7.3505
H      9.3938     -1.8635      5.4988
H      5.9906     -0.9930      3.8141
H      8.1411      3.0502      5.4290
N      7.2049      4.1257      3.2991
C      9.4119     -0.9970      4.7898
C      6.6530      2.8009      3.7398
C      7.1413      0.1099      4.3620
C      8.4260     -0.0442      5.1070
C      6.3448      4.9577      3.9986
C      7.2840      2.3966      4.8117
C      6.8605      0.6049      6.8115
C      8.2742     -0.1238      6.7499
C      6.5571      1.1887      5.2748
28

O      5.6537      2.1765      3.1174
O      6.4614      4.9305      5.2953
O      6.3300     -0.9488      4.6829
O      9.1147     -1.6268      3.5812
O      9.3273      0.1775      7.4188
O      5.4364      5.8134      3.4218
O      7.1243      0.1372      3.0438
H      8.7197      0.9054      4.7858
H      6.9130      1.5040      7.3889
H      6.6813      1.2439      2.5865
H      6.7379      3.9602      5.1650
H      9.8412     -0.0074      6.6663
H      5.7328      1.4204      4.7965
H     10.4924     -0.4353      4.8700
H      8.9880     -1.3506      2.6424
H      6.0917      0.2766      7.4501
H      9.2707     -1.8459      5.2723
H      5.9670     -0.9296      3.7735
N      7.2055      4.0833      3.2966
C      9.3812     -1.0146      4.7701
C      6.6659      2.8127      3.7482
C      7.1477      0.1161      4.3700
C      8.4628     -0.0855      5.1256
C      6.3302      4.9625      3.9786
C      7.2464      2.3777      4.8121
C      6.8284      0.5949      6.7639
C      8.2576     -0.1395      6.7349
C      6.5808      1.1127      5.2533
28

O      5.6573      2.1863      3.1203
O      6.4708      4.9210      5.3118
O      6.3070     -0.9351      4.6552
O      9.0960     -1.6170      3.5895
O      9.3149      0.1893      7.4173
O      5.4497      5.8165      3.4275
O      7.1186      0.1294      3.0271
H      8.7976      0.8777      4.8464
H      6.9072      1.4899      7.3662
H      6.6897      1.2953      2.5749
H      6.7467      3.8942      5.1912
H      9.8110      0.0257      6.6953
H      5.7487      1.4593      4.8097
H     10.5525     -0.3773      4.9688
H      8.9271     -1.3256      2.6507
H      6.0401      0.2895      7.5009
H      9.2086     -1.8843      5.2142
H      5.9486     -0.9084      3.7463
N      7.2045      4.0621      3.2970
C      9.3736     -1.0244      4.7578
C      6.6718      2.8201      3.7475
C      7.1522      0.1162      4.3806
C      8.4769     -0.1012      5.1388
C      6.3187      4.9713      3.9642
C      7.2300      2.3681      4.8180
C      6.8167      0.5939      6.7370
C      8.2438     -0.1422      6.7205
C      6.5954      1.0768      5.2466
28

O      5.6481      2.1535      3.1024
O      6.4367      4.9575      5.2490
O      6.3938     -1.0047      4.7611
O      9.1637     -1.6655      3.5530
O      9.3600      0.1408      7.4220
O      5.4008      5.7730      3.4127
O      7.1432      0.1765      3.0787
H      6.9672      1.5352      7.4365
H      6.6580      0.9506      2.7169
H      6.7341      4.0811      5.2278
H     10.0475     -0.1008      6.6002
H      5.4867      1.3018      4.7839
H     10.2800     -0.6945      4.5690
H      9.1862     -1.3529      2.5515
H      6.0988      0.1193      7.3152
H      9.4494     -1.8743      5.6188
H      5.9996     -1.0375      3.8366
H      8.1294      2.9590      5.3731
N      7.2034      4.1457      3.3016
C      9.4276     -0.9934      4.7981
C      6.6468      2.7973      3.7309
C      7.1383      0.1049      4.3672
C      8.4068     -0.0199      5.1012
C      6.3466      4.9627      4.0020
C      7.3037      2.4052      4.8157
C      6.8819      0.6153      6.8306
C      8.2769     -0.1107      6.7501
C      6.5471      1.2257      5.2881
28

O      5.6492      2.1597      3.1083
O      6.4447      4.9479      5.2631
O      6.3734     -0.9842      4.7363
O      9.1483     -1.6513      3.5626
O      9.3488      0.1534      7.4224
O      5.4118      5.7916      3.4142
O      7.1367      0.1612      3.0701
H      6.9443      1.5304      7.4232
H      6.6620      1.0690      2.6599
H      6.7263      4.0672      5.1819
H      9.9755     -0.0753      6.5993
H      5.5850      1.3409      4.7773
H     10.3253     -0.6127      4.6675
H      9.1182     -1.3628      2.5859
H      6.1289      0.1946      7.3505
H      9.3938     -1.8635      5.4988
H      5.9906     -0.9930      3.8141
H      8.1411      3.0502      5.4290
N      7.2049      4.1257      3.2991
C      9.4119     -0.9970      4.7898
C      6.6530      2.8009      3.7398
C      7.1413      0.1099      4.3620
C      8.4260     -0.0442      5.1070
C      6.3448      4.9577      3.9986
C      7.2840      2.3966      4.8117
C      6.8605      0.6049      6.8115
C      8.2742     -0.1238      6.7499
C      6.5571      1.1887      5.2748
28

O      5.6537      2.1765      3.1174
O      6.4614      4.9305      5.2953
O      6.3300     -0.9488      4.6829
O      9.1147     -1.6268      3.5812
O      9.3273      0.1775      7.4188
O      5.4364      5.8134      3.4218
O      7.1243      0.1372      3.0438
H      8.7197      0.9054      4.7858
H      6.9130      1.5040      7.3889
H      6.6813      1.2439      2.5865
H      6.7379      3.9602      5.1650
H      9.8412     -0.0074      6.6663
H      5.7328      1.4204      4.7965
H     10.4924     -0.4353      4.8700
H      8.9880     -1.3506      2.6424
H      6.0917      0.2766      7.4501
H      9.2707     -1.8459      5.2723
H      5.9670     -0.9296      3.7735
N      7.2055      4.0833      3.2966
C      9.3812     -1.0146      4.7701
C      6.6659      2.8127      3.7482
C      7.1477      0.1161      4.3700
C      8.4628     -0.0855      5.1256
C      6.3302      4.9625      3.9786
C      7.2464      2.3777      4.8121
C      6.8284      0.5949      6.7639
C      8.2576     -0.1395      6.7349
C      6.5808      1.1127      5.2533
28

O      5.6573      2.1863      3.1203
O      6.4708      4.9210      5.3118
O      6.3070     -0.9351      4.6552
O      9.0960     -1.6170      3.5895
O      9.3149      0.1893      7.4173
O      5.4497      5.8165      3.4275
O      7.1186      0.1294      3.0271
H      8.7976      0.8777      4.8464
H      6.9072      1.4899      7.3662
H      6.6897      1.2953      2.5749
H      6.7467      3.8942      5.1912
H      9.8110      0.0257      6.6953
H      5.7487      1.4593      4.8097
H     10.5525     -0.3773      4.9688
H      8.9271     -1.3256      2.6507
H      6.0401      0.2895      7.5009
H      9.2086     -1.8843      5.2142
H      5.9486     -0.9084      3.7463
N      7.2045      4.0621      3.2970
C      9.3736     -1.0244      4.7578
C      6.6718      2.8201      3.7475
C      7.1522      0.1162      4.3806
C      8.4769     -0.1012      5.1388
C      6.3187      4.9713      3.9642
C      7.2300      2.3681      4.8180
C      6.8167      0.5939      6.7370
C      8.2438     -0.1422      6.7205
C      6.5954      1.0768      5.2466
