32

O      6.1227      2.2763      2.3193
O      5.4311     -1.0787      2.2300
O      6.6344      4.5759      5.3047
O      7.3368     -1.3901      5.5222
O      8.9170     -1.3107      3.7667
O      9.0652     -0.2842      7.6321
O      5.4695      5.5942      3.4199
O      7.0727      0.0010      3.3236
H      6.9052     -1.2515      4.5642
H      9.6784      1.4799      6.8828
H      5.5008     -0.7093      4.3597
H      6.9574      2.0307      7.4304
H      5.7285      4.4771      5.6821
H      8.3515      0.0122      8.0936
H      5.8134      1.0192      5.8404
H     10.6577     -0.5408      3.4999
H      6.6294      0.0951      7.0819
H      8.9727      1.4242      4.9131
H      7.9710     -2.2665      5.7094
H      8.2251      2.6383      4.9564
H      7.3186      3.7360      1.9324
N      7.2193      3.9487      3.1586
C      5.5979     -0.2209      3.3372
C      9.9975     -0.6300      4.4577
C      6.7659      2.6149      3.3318
C      7.6146      0.0773      4.6186
C      8.9831      0.4502      5.2303
C      6.3662      4.9574      3.9003
C      7.0247      2.1688      4.5584
C      7.2442      1.0966      6.8883
C      8.7377      0.8169      6.6929
C      6.7448      1.1137      5.3921
32

O      6.1378      2.2881      2.3212
O      5.4173     -1.0727      2.2300
O      6.6364      4.5728      5.3051
O      7.3253     -1.4009      5.5055
O      8.9010     -1.3163      3.7693
O      9.0897     -0.2646      7.6157
O      5.4751      5.5780      3.4196
O      7.0373      0.0176      3.3168
H      6.8340     -1.2518      4.6255
H      9.7257      1.4270      7.0330
H      5.5245     -0.6424      4.2999
H      6.9731      2.0225      7.5406
H      5.6765      4.4234      5.6966
H      8.3206     -0.0352      8.0974
H      5.8026      1.0436      5.7989
H     10.7368     -0.5349      3.5212
H      6.5752      0.0445      7.0866
H      8.9118      1.4299      4.8588
H      7.9830     -2.3107      5.7537
H      8.2437      2.6433      4.9931
H      7.3155      3.7542      1.9689
N      7.2272      3.9476      3.1457
C      5.5711     -0.2334      3.3087
C      9.9953     -0.6233      4.4763
C      6.7718      2.6172      3.3313
C      7.6199      0.0855      4.6285
C      8.9762      0.4561      5.1947
C      6.3363      4.9610      3.9012
C      7.0226      2.1679      4.5555
C      7.2551      1.1227      6.8963
C      8.7557      0.8194      6.6943
C      6.7424      1.1084      5.4173
32

O      6.1502      2.2989      2.3215
O      5.4034     -1.0666      2.2309
O      6.6367      4.5705      5.3043
O      7.3131     -1.4122      5.4876
O      8.8870     -1.3233      3.7713
O      9.1139     -0.2464      7.5979
O      5.4769      5.5623      3.4188
O      7.0040      0.0338      3.3110
H      6.7663     -1.2738      4.6996
H      9.7524      1.3767      7.1690
H      5.5329     -0.5794      4.2501
H      6.9918      1.9996      7.6394
H      5.6391      4.3789      5.7108
H      8.2750     -0.0895      8.1194
H      5.7601      1.0603      5.7485
H     10.8034     -0.5189      3.5712
H      6.5421      0.0213      7.1006
H      8.8639      1.4432      4.7946
H      7.9916     -2.3359      5.7907
H      8.2148      2.6451      5.0199
H      7.3059      3.7974      2.0303
N      7.2339      3.9476      3.1319
C      5.5449     -0.2455      3.2774
C      9.9912     -0.6179      4.4964
C      6.7784      2.6218      3.3316
C      7.6227      0.0949      4.6406
C      8.9692      0.4595      5.1582
C      6.3143      4.9592      3.9034
C      7.0239      2.1716      4.5562
C      7.2661      1.1465      6.9023
C      8.7728      0.8204      6.6957
C      6.7419      1.1006      5.4442
32

O      6.1593      2.3085      2.3202
O      5.3890     -1.0608      2.2321
O      6.6348      4.5693      5.3024
O      7.3012     -1.4243      5.4698
O      8.8755     -1.3319      3.7719
O      9.1360     -0.2301      7.5799
O      5.4746      5.5481      3.4170
O      6.9739      0.0495      3.3066
H      6.6940     -1.3128      4.7695
H      9.7584      1.3325      7.2890
H      5.5232     -0.5287      4.2273
H      7.0148      1.9650      7.7191
H      5.6255      4.3454      5.7215
H      8.2384     -0.1570      8.1433
H      5.6945      1.0693      5.6897
H     10.8515     -0.4945      3.6522
H      6.5340      0.0297      7.1225
H      8.8308      1.4565      4.7261
H      7.9938     -2.3386      5.8178
H      8.1410      2.6450      5.0358
H      7.2903      3.8617      2.1049
N      7.2395      3.9490      3.1185
C      5.5197     -0.2574      3.2433
C      9.9851     -0.6136      4.5173
C      6.7859      2.6287      3.3333
C      7.6220      0.1050      4.6543
C      8.9627      0.4611      5.1217
C      6.3014      4.9506      3.9076
C      7.0284      2.1794      4.5612
C      7.2768      1.1675      6.9070
C      8.7889      0.8212      6.6965
C      6.7430      1.0912      5.4721
32

O      6.1649      2.3170      2.3172
O      5.3740     -1.0554      2.2332
O      6.6305      4.5690      5.2992
O      7.2906     -1.4371      5.4532
O      8.8670     -1.3420      3.7708
O      9.1548     -0.2167      7.5629
O      5.4683      5.5359      3.4140
O      6.9479      0.0645      3.3035
H      6.6058     -1.3662      4.8219
H      9.7457      1.2995      7.3938
H      5.4944     -0.4950      4.2369
H      7.0421      1.9226      7.7742
H      5.6371      4.3225      5.7286
H      8.2257     -0.2377      8.1582
H      5.6263      1.0715      5.6227
H     10.8783     -0.4642      3.7615
H      6.5522      0.0701      7.1520
H      8.8128      1.4608      4.6604
H      7.9860     -2.3170      5.8328
H      8.0309      2.6455      5.0416
H      7.2685      3.9418      2.1670
N      7.2435      3.9521      3.1077
C      5.4958     -0.2695      3.2073
C      9.9769     -0.6100      4.5378
C      6.7945      2.6377      3.3362
C      7.6171      0.1151      4.6691
C      8.9570      0.4618      5.0863
C      6.2977      4.9344      3.9143
C      7.0353      2.1905      4.5708
C      7.2872      1.1852      6.9107
C      8.8040      0.8228      6.6958
C      6.7443      1.0814      5.4999
32

O      6.1227      2.2763      2.3193
O      5.4311     -1.0787      2.2300
O      6.6344      4.5759      5.3047
O      7.3368     -1.3901      5.5222
O      8.9170     -1.3107      3.7667
O      9.0652     -0.2842      7.6321
O      5.4695      5.5942      3.4199
O      7.0727      0.0010      3.3236
H      6.9052     -1.2515      4.5642
H      9.6784      1.4799      6.8828
H      5.5008     -0.7093      4.3597
H      6.9574      2.0307      7.4304
H      5.7285      4.4771      5.6821
H      8.3515      0.0122      8.0936
H      5.8134      1.0192      5.8404
H     10.6577     -0.5408      3.4999
H      6.6294      0.0951      7.0819
H      8.9727      1.4242      4.9131
H      7.9710     -2.2665      5.7094
H      8.2251      2.6383      4.9564
H      7.3186      3.7360      1.9324
N      7.2193      3.9487      3.1586
C      5.5979     -0.2209      3.3372
C      9.9975     -0.6300      4.4577
C      6.7659      2.6149      3.3318
C      7.6146      0.0773      4.6186
C      8.9831      0.4502      5.2303
C      6.3662      4.9574      3.9003
C      7.0247      2.1688      4.5584
C      7.2442      1.0966      6.8883
C      8.7377      0.8169      6.6929
C      6.7448      1.1137      5.3921
32

O      6.1378      2.2881      2.3212
O      5.4173     -1.0727      2.2300
O      6.6364      4.5728      5.3051
O      7.3253     -1.4009      5.5055
O      8.9010     -1.3163      3.7693
O      9.0897     -0.2646      7.6157
O      5.4751      5.5780      3.4196
O      7.0373      0.0176      3.3168
H      6.8340     -1.2518      4.6255
H      9.7257      1.4270      7.0330
H      5.5245     -0.6424      4.2999
H      6.9731      2.0225      7.5406
H      5.6765      4.4234      5.6966
H      8.3206     -0.0352      8.0974
H      5.8026      1.0436      5.7989
H     10.7368     -0.5349      3.5212
H      6.5752      0.0445      7.0866
H      8.9118      1.4299      4.8588
H      7.9830     -2.3107      5.7537
H      8.2437      2.6433      4.9931
H      7.3155      3.7542      1.9689
N      7.2272      3.9476      3.1457
C      5.5711     -0.2334      3.3087
C      9.9953     -0.6233      4.4763
C      6.7718      2.6172      3.3313
C      7.6199      0.0855      4.6285
C      8.9762      0.4561      5.1947
C      6.3363      4.9610      3.9012
C      7.0226      2.1679      4.5555
C      7.2551      1.1227      6.8963
C      8.7557      0.8194      6.6943
C      6.7424      1.1084      5.4173
32

O      6.1502      2.2989      2.3215
O      5.4034     -1.0666      2.2309
O      6.6367      4.5705      5.3043
O      7.3131     -1.4122      5.4876
O      8.8870     -1.3233      3.7713
O      9.1139     -0.2464      7.5979
O      5.4769      5.5623      3.4188
O      7.0040      0.0338      3.3110
H      6.7663     -1.2738      4.6996
H      9.7524      1.3767      7.1690
H      5.5329     -0.5794      4.2501
H      6.9918      1.9996      7.6394
H      5.6391      4.3789      5.7108
H      8.2750     -0.0895      8.1194
H      5.7601      1.0603      5.7485
H     10.8034     -0.5189      3.5712
H      6.5421      0.0213      7.1006
H      8.8639      1.4432      4.7946
H      7.9916     -2.3359      5.7907
H      8.2148      2.6451      5.0199
H      7.3059      3.7974      2.0303
N      7.2339      3.9476      3.1319
C      5.5449     -0.2455      3.2774
C      9.9912     -0.6179      4.4964
C      6.7784      2.6218      3.3316
C      7.6227      0.0949      4.6406
C      8.9692      0.4595      5.1582
C      6.3143      4.9592      3.9034
C      7.0239      2.1716      4.5562
C      7.2661      1.1465      6.9023
C      8.7728      0.8204      6.6957
C      6.7419      1.1006      5.4442
32

O      6.1593      2.3085      2.3202
O      5.3890     -1.0608      2.2321
O      6.6348      4.5693      5.3024
O      7.3012     -1.4243      5.4698
O      8.8755     -1.3319      3.7719
O      9.1360     -0.2301      7.5799
O      5.4746      5.5481      3.4170
O      6.9739      0.0495      3.3066
H      6.6940     -1.3128      4.7695
H      9.7584      1.3325      7.2890
H      5.5232     -0.5287      4.2273
H      7.0148      1.9650      7.7191
H      5.6255      4.3454      5.7215
H      8.2384     -0.1570      8.1433
H      5.6945      1.0693      5.6897
H     10.8515     -0.4945      3.6522
H      6.5340      0.0297      7.1225
H      8.8308      1.4565      4.7261
H      7.9938     -2.3386      5.8178
H      8.1410      2.6450      5.0358
H      7.2903      3.8617      2.1049
N      7.2395      3.9490      3.1185
C      5.5197     -0.2574      3.2433
C      9.9851     -0.6136      4.5173
C      6.7859      2.6287      3.3333
C      7.6220      0.1050      4.6543
C      8.9627      0.4611      5.1217
C      6.3014      4.9506      3.9076
C      7.0284      2.1794      4.5612
C      7.2768      1.1675      6.9070
C      8.7889      0.8212      6.6965
C      6.7430      1.0912      5.4721
32

O      6.1649      2.3170      2.3172
O      5.3740     -1.0554      2.2332
O      6.6305      4.5690      5.2992
O      7.2906     -1.4371      5.4532
O      8.8670     -1.3420      3.7708
O      9.1548     -0.2167      7.5629
O      5.4683      5.5359      3.4140
O      6.9479      0.0645      3.3035
H      6.6058     -1.3662      4.8219
H      9.7457      1.2995      7.3938
H      5.4944     -0.4950      4.2369
H      7.0421      1.9226      7.7742
H      5.6371      4.3225      5.7286
H      8.2257     -0.2377      8.1582
H      5.6263      1.0715      5.6227
H     10.8783     -0.4642      3.7615
H      6.5522      0.0701      7.1520
H      8.8128      1.4608      4.6604
H      7.9860     -2.3170      5.8328
H      8.0309      2.6455      5.0416
H      7.2685      3.9418      2.1670
N      7.2435      3.9521      3.1077
C      5.4958     -0.2695      3.2073
C      9.9769     -0.6100      4.5378
C      6.7945      2.6377      3.3362
C      7.6171      0.1151      4.6691
C      8.9570      0.4618      5.0863
C      6.2977      4.9344      3.9143
C      7.0353      2.1905      4.5708
C      7.2872      1.1852      6.9107
C      8.8040      0.8228      6.6958
C      6.7443      1.0814      5.4999
