35

O      5.7045      2.0772      2.7051
O      5.8078     -1.3388      2.4460
O      6.8107      4.6077      5.2847
O      7.4506     -1.4260      5.4663
O      9.6451     -1.7101      3.7955
O      8.2511     -0.5792      7.6533
O      5.3567      5.4341      3.8014
O      7.5916     -0.1886      3.4475
H      6.5147     -1.6801      5.0644
H      8.8630      1.2815      7.0245
H      5.8423      0.7634      2.7305
H      5.5236     -0.8483      4.2834
H      6.3668      1.7310      7.4238
H      8.4055      0.2220      8.2199
H      5.6781      1.0296      5.1766
H     10.3106     -0.0132      3.6160
H      6.1645     -0.6815      1.8597
H      9.2914      1.5680      5.2033
H      7.2803     -0.9971      6.4319
H      4.8299      5.7843      2.7703
H      8.3792      2.5940      4.6303
H      5.8072      4.4576      2.3045
H      6.1180      3.6612      5.3068
H     10.1892     -2.4514      3.0197
N      6.7988      4.0909      2.8290
C      6.1133     -0.3538      3.4936
C     10.1652     -0.4887      4.4583
C      6.7212      2.8036      3.3148
C      7.6445      0.0141      4.8247
C      8.9906      0.4672      5.3369
C      6.6702      5.1127      3.9300
C      7.1581      2.2605      4.4831
C      6.6907      0.8869      6.8125
C      8.2176      0.3944      6.7989
C      6.7209      1.0933      5.2554
35

O      5.7045      2.0772      2.7051
O      5.8078     -1.3388      2.4460
O      6.8107      4.6077      5.2847
O      7.4506     -1.4260      5.4663
O      9.6451     -1.7101      3.7955
O      8.2511     -0.5792      7.6533
O      5.3567      5.4341      3.8014
O      7.5916     -0.1886      3.4475
H      6.5147     -1.6801      5.0644
H      8.8630      1.2815      7.0245
H      5.8423      0.7634      2.7305
H      5.5236     -0.8483      4.2834
H      6.3668      1.7310      7.4238
H      8.4055      0.2220      8.2199
H      5.6781      1.0296      5.1766
H     10.3106     -0.0132      3.6160
H      6.1645     -0.6815      1.8597
H      9.2914      1.5680      5.2033
H      7.2803     -0.9971      6.4319
H      4.8299      5.7843      2.7703
H      8.3792      2.5940      4.6303
H      5.8072      4.4576      2.3045
H      6.1180      3.6612      5.3068
H     10.1892     -2.4514      3.0197
N      6.7988      4.0909      2.8290
C      6.1133     -0.3538      3.4936
C     10.1652     -0.4887      4.4583
C      6.7212      2.8036      3.3148
C      7.6445      0.0141      4.8247
C      8.9906      0.4672      5.3369
C      6.6702      5.1127      3.9300
C      7.1581      2.2605      4.4831
C      6.6907      0.8869      6.8125
C      8.2176      0.3944      6.7989
C      6.7209      1.0933      5.2554
