   96
 8.60913090000000e+00  8.60913090000000e+00  8.60913090000000e+00
 O  2.41064816643868e+00  8.23214129498531e+00  7.08948166776353e+00     1.56344598798850e-01  1.52573747616022e-01 -4.43888711133906e-01
 H  5.64043653169790e-02  6.90519950646104e+00 -6.33546751962984e-01     6.09425933014239e-01 -2.38523686103800e+00 -1.77678353236117e+00
 H  1.26562751956612e+00  5.23112148950845e+00  6.51515858787333e+00    -1.73254572338525e+00 -3.18352036237913e+00 -2.71743195791328e+00
 O  9.52774663704221e+00  8.61447128537970e+00  4.93514194827107e+00    -1.15761491498536e-01 -3.99210662831931e-01 -6.15961101240322e-01
 H  2.77601773125439e+00  4.93748538633920e+00  7.52813867477765e+00     3.44926028870985e-01 -9.58162611787581e-01  1.27514615626927e+00
 H  7.66711177899816e+00  3.16477019080177e+00  4.58527841773192e+00    -2.40597913649079e+00  7.53236174933313e-01  2.14463678225614e+00
 O  1.84864799007301e+00  7.75412913930979e+00  3.04986424561549e+00     7.98858986199169e-01 -7.47876240681874e-01  1.92255249541844e-02
 H  3.05518349939761e+00  5.44152230858772e-01  6.78129093475920e+00     4.10288113165312e-01 -2.61607452739428e+00  3.66453651645496e+00
 H  5.16248110521643e+00  7.28912254667699e+00  6.83630362352460e+00     3.68334988874379e+00 -4.19796424010308e-01 -1.37476836849253e+00
 O  2.57404453628016e-01  2.46647271793067e+00  3.07526718281107e+00    -4.12237521796847e-01  1.49344466049210e-01  1.82305968907535e-01
 H  4.86305193272937e+00  4.34526953771720e+00  8.47834700707129e+00    -6.79597664571563e-01 -6.94048252233633e-01 -2.51516262471041e+00
 H  4.09631467421561e+00  1.10493286115058e+01  6.85010931974783e+00    -1.33696819533866e+00  1.59295405816248e+00 -1.24856314239489e-01
 O  2.07274240480246e+00  5.52336597462083e+00  7.08897360960775e+00    -1.17553111640046e+00  5.11848450324231e-01 -4.21584681038504e-01
 H  5.28580966751255e+00  4.45524160493433e+00  3.42373729322998e+00     1.17463920181138e+00  9.10884312707916e-01  1.03296571362449e+00
 H  4.92283049603821e-01  5.42190725510018e+00  6.53904964692676e-01     4.41884540274938e+00 -8.89824885336678e-01  3.17885664890647e+00
 O  7.69873691645699e+00  2.34582126370755e+00  7.51734269779455e+00    -1.68913862595570e-01 -1.29075603674862e-01 -5.25627439286943e-01
 H  1.87479141061090e+00  4.81182489844404e+00  2.26623802587051e+00     1.12484963552486e+00 -2.91830107996277e+00 -2.47603675850966e+00
 H  3.79547099275972e+00  3.10817690601590e+00  5.02835419869284e+00    -2.06999381671526e+00  8.80298924680996e-01 -1.78873880555313e+00
 O  8.80919838884130e-02  5.26192551078283e+00  3.43479530882479e+00     4.89997900527660e-01  1.02453185659102e-01 -3.56255174564768e-01
 H  6.41860006071492e+00  3.79464758628439e-01  4.65119976019103e+00    -3.16118827186406e-01 -1.53669804333572e-01  9.01653939154589e-01
 H  2.61521296119422e+00  5.51901090004890e+00  7.90005716667300e-01     5.98683108911166e-01  1.18338458640165e+00  6.86720871467311e-01
 O  3.67673454379931e+00  5.64727002044885e+00  6.09976978677670e-01     6.12923992189880e-01  2.59034600755557e-01 -5.84785016792553e-02
 H -8.33473279467184e-01  3.33868741811348e+00  6.93792755671182e+00    -1.18645247314235e+00  2.47193594295165e+00  1.20410643586236e+00
 H  6.86876572764748e+00  6.12177123366380e+00  5.12356347084550e+00     1.55578319564999e+00  9.88451000557270e-01  3.96737908930767e+00
 O  5.62417540081729e+00  1.10844278121501e+00  7.62619430420180e-01    -8.17520874163597e-01  7.26324284087126e-02  4.85108297816488e-01
 H  4.88071234980229e+00  5.06348801002826e+00  2.17068558973996e+00    -1.31155227831252e+00 -3.59701648905010e-01  1.09813465625546e+00
 H  2.57134056207629e+00  7.90333125247527e+00  3.88789266242101e+00     2.39115369077733e+00  1.41160464061629e+00 -1.13899426605180e+00
 O  2.62251070842095e+00  2.13956549623762e+00  4.56013289490393e+00    -2.41828063596396e-01  2.49509273651948e-01  1.12228993417813e-01
 H  7.57970981945063e+00  7.24339606890227e+00  9.03886840937698e+00     1.77598130392269e+00 -1.89134830951488e+00  3.44395970249056e-01
 H  7.27492558534624e+00  6.17376967548373e+00  7.16944123024482e+00     3.13833141398551e+00 -1.04493291974345e+00  5.63421238559417e-01
 O  3.39871827139309e+00  2.72016490113420e+00  1.30776079093127e+00    -1.21500627611594e-01  9.95171231219486e-02 -3.88365617301805e-01
 H  7.49635026615335e+00  4.66763214989831e+00  5.71884310199409e+00     1.85842078369552e+00 -4.36847136550954e-01 -2.15686058058134e-01
 H  7.57423050033076e+00  4.48147859478978e+00  2.01464204394007e+00    -1.01244610788582e+00 -1.04447291856172e+00 -1.53534593584515e+00
 O  8.81914186426899e+00  7.98212351883387e-01  8.25805247013839e-01    -1.76616275701789e-01 -2.45596911556426e-01 -3.67462482316839e-01
 H  8.81594010028745e+00  9.04492503318401e+00  5.52691902132852e+00     1.49999228419578e+00 -1.84846558198470e+00  3.68935970633879e+00
 H  5.72633258036941e+00  7.13708928657299e+00  8.31591240597670e+00     2.46295717115080e-01 -3.04419132542142e+00 -1.68134890878493e-01
 O  8.03955926567270e+00  7.35232981668771e+00  3.00820857374833e+00    -1.52268215450705e-02 -2.72226507276185e-01  3.13555071857015e-01
 H  2.56128418686533e+00  3.39131093854860e+00  1.24792885807961e+00     1.05711407983940e-01  1.17910936531141e+00  9.32585566298873e-01
 H  9.98887830576650e+00 -3.52675890304590e-01  4.17764821477784e+00     4.48099275561372e-01  3.31470143422121e+00 -1.70865313124643e+00
 O  4.10178363840296e+00  3.29852447130158e+00  6.28132566440134e+00    -8.46180936185797e-02  1.65287431352728e-01  1.07322310517259e-01
 H  5.01665415265278e+00  4.03446076454238e+00  6.66439987760844e+00     1.09697855198960e+00  4.55117293371410e-01 -3.22507495950808e+00
 H  6.87095553099487e+00  1.62892443999709e+00  7.53196522532122e+00    -2.34565230491871e+00 -7.60824291080036e-01 -1.97540411141643e+00
 O  1.84118412359000e+00  2.21147628916872e+00  7.24726482100100e+00     2.58948601153692e-01  6.61042983129760e-01  7.88343044362819e-01
 H  1.66720587868728e+00  2.63097058000110e+00  6.32838564015274e+00    -9.58336209568284e-01  2.57843566979107e+00  5.12809677334535e-01
 H  5.71237113164687e+00  1.43776853195270e+00  3.16245065386248e+00     2.08930189502216e-01  1.03826883694139e+00 -1.49320792343989e+00
 O  6.69873932963730e+00  7.70900558732607e+00  8.99697424807449e+00     3.25330763615912e-01 -9.69671602537271e-01  9.42777995001341e-02
 H  4.32316451008273e+00  5.91964493048667e+00 -2.25566767552711e-01    -2.59325812720005e+00  7.47418569346830e-01 -1.24793008099099e+00
 H  8.61153251039457e+00  1.64045781126926e+00  2.18959011736707e-01    -2.61603332871328e+00 -4.49929678423252e-01  2.44292108552542e+00
 O  3.51538003419775e-01  6.42055072326383e+00  1.68246855954200e-01    -8.70971155597893e-01  6.00186367479065e-02 -4.24331133094403e-01
 H  1.72120573469966e+00  2.55304768231781e+00  4.49692237484278e+00     2.10873694518742e-01 -3.21916096417859e+00 -1.56443816526679e+00
 H  4.73404354519017e+00  5.86239352393327e-01  9.06765276206792e-01    -7.73725091570982e-02  5.85552746809717e-01  4.25154034134023e+00
 O  6.87532748234219e+00  1.08153663100182e-01  5.38578456899334e+00     3.58207617346977e-01 -3.90834937815243e-01 -1.14152296918161e-01
 H  4.71823518692281e+00 -1.91264591299190e-01  3.04553112460182e+00     6.57936334626390e-02  1.88594602886642e+00 -1.15810468029815e+00
 H  3.32411034377016e+00  1.48236736394265e+00  1.13271401371090e+00    -5.25723650433416e-01  1.70620571997006e+00  2.54132353343911e+00
 O  3.18817898402046e+00  5.45417709632702e+00  5.06125305543361e+00     2.09227885826407e-01  3.38094761477077e-02 -7.32824166499416e-01
 H -9.85109899124787e-02  3.32073173057279e+00  3.32926827095731e+00    -2.39209512838818e+00 -2.86517157813193e+00 -2.80505547317000e+00
 H  2.77537126062920e+00  1.12999493122981e+00  4.65121481337821e+00     1.76254425707280e+00  1.27571476720351e+00 -1.72417555481395e-01
 O  4.47956233069842e+00  4.41643576603467e+00  2.84161193496612e+00     4.04916253564043e-01  6.85296707914260e-02 -5.42658458641995e-01
 H  5.94529756888443e+00  3.99998284266550e+00  9.47853511596887e+00     1.38584687841774e+00  2.15200790518363e+00 -2.13841350675570e+00
 H  7.33863271698561e+00  2.08997027707826e+00  2.71713759446523e+00    -6.09182424988165e-01  3.44720485449589e-01  7.11225718106253e-01
 O  4.42672171701408e+00  7.51019068798752e+00  2.83792681590898e+00     4.90093241797179e-01 -7.05875089355282e-01  5.36126594896775e-01
 H  2.59215687359860e+00  8.67342749334781e+00  1.01637488224653e+01     2.34827833038370e+00  1.53243452173198e+00  1.63396839700145e+00
 H  3.54531546130027e+00  4.46735850706709e+00  4.83240963857002e+00     1.03090068502138e+00  2.32680671925762e+00  1.58581352170614e-01
 O  4.98895131956911e+00  6.94623019060492e+00  7.69545868260814e+00     3.46055845650706e-01  5.69009484880694e-02 -2.07981423739530e-01
 H  1.86339766169184e+00 -1.87068682539888e+00  2.44567017011784e+00    -2.60502737000568e+00 -1.89065606122173e+00  1.97770642513431e+00
 H  4.98893524450768e+00  6.79371617128695e+00  2.19786534761812e+00     3.04917144576654e+00 -1.34638243318918e-01  2.24784259053808e+00
 O  4.62515007982438e+00  9.93949577316061e+00  6.86601237322601e+00     6.27905200870737e-01 -3.30309494275569e-01 -6.10808622785309e-01
 H  5.34676102207241e-01  7.34106651943994e-01  1.91979763026080e+00    -2.58438319033937e-01  4.59805472063540e+00 -1.99489671517828e+00
 H  8.75737746994000e+00  3.75030051404865e+00  1.28127267835982e+00     5.80898216800579e-02  9.30560199894552e-02 -1.35508384551393e+00
 O  7.99247228027971e+00  4.19032104926653e+00  1.03789272540869e+00     4.70563616228080e-01 -7.91251340051046e-02  7.58421055978535e-01
 H  1.07868929260727e+00  7.41588038694732e-01  2.76789457962658e-01     1.32980836647187e+00  5.71362131911627e-01  5.93994641588194e-01
 H  7.68855155782124e+00  8.10856070991972e+00  2.59110926252442e+00     8.56541016001111e-01  9.07779875034239e-01 -2.21008434069296e+00
 O  7.75180891362810e+00  6.09882967842890e+00  6.38353565313695e+00    -2.89928410258432e-01 -1.61397717351686e-01  3.81286340895296e-01
 H  5.24197890430559e+00  9.95472938348816e+00  6.21940495642412e+00    -7.59431044982892e-01  8.54135315555486e-01 -2.82190001606259e+00
 H  6.08982095957193e-01  5.09875223788848e+00  4.28398191121399e+00    -1.12510946428387e-01  1.83895847790626e+00 -1.00399615153698e-01
 O  5.73661807076389e+00  3.91458715044620e+00  8.58806806628525e+00     1.35688369809200e-01  4.77268544316340e-01  3.85736820541109e-01
 H  6.53408733546500e+00 -5.70356517105826e-01  5.92691384677512e+00    -2.09643629767960e+00  1.74030086238077e+00  8.22901013283374e-01
 H  6.44438181817750e+00  2.72666292376335e+00  1.36725048083511e+00    -2.67132606892662e+00 -4.93177058081127e-01 -2.69987514029438e-01
 O  5.17116889482212e+00  1.29910370355004e+00  4.03008796233087e+00     8.02469705290852e-02 -1.01089168575129e-01  1.94407917264671e-01
 H -8.52846536484051e-02  6.50471713835274e+00  3.29417888126289e+00     9.03125880035738e-02  1.72844465488062e+00  1.68832862399342e+00
 H  6.40970728551890e-01  1.92427397677987e+00  3.80968148712443e+00    -3.43673601975999e+00  8.03297414022878e-01  6.20832521171271e-01
 O  3.11272048980137e+00  5.28050623289303e-01  9.59762540960347e-01     7.33252352783892e-01 -2.61695016472061e-01  8.43607765911407e-01
 H  4.32036652208424e+00  2.51402363258205e+00  9.03513197991043e-01     2.49893353272005e+00  1.68569911172789e+00  1.18203371719978e+00
 H  6.34665537015818e+00  2.95822848883031e-01  8.06920557792109e-01     1.27720275305874e+00 -3.24273911394559e+00  1.69627659720096e+00
 O  5.81194614052646e+00  6.10377403268648e+00  4.74640140054802e+00    -3.17183914415250e-01 -8.03455700330361e-01  1.26154457598740e+00
 H  9.62389557000069e+00 -3.35237512957211e-01  2.76089369330579e+00    -3.01269121128096e+00  3.12723890305933e-01  1.25669282306452e+00
 H  2.15779452608536e+00  7.45820271332316e+00  6.69801684173855e+00     5.10338413679542e-01  5.92802897560618e-01 -2.45756110251582e+00
 O  1.69754282122979e+00  4.23795932635910e+00  1.42819575952011e+00    -3.55208988288035e-01  3.10041157275080e-01  4.67986550844329e-01
 H  1.24106131376117e+00  2.85082245549476e+00  7.68939798127729e+00    -5.56333180390858e-01  2.38005785302271e+00 -9.20055391109121e-01
 H  4.71678310195203e+00  2.15228933146891e+00  3.86359736251930e+00    -2.07318117321657e+00  1.25389497643635e+00  3.18600313709861e-01
 O  7.48661640800582e+00  3.81604498535606e+00  5.23928004749038e+00    -6.47232680422023e-01  9.35401580593610e-01 -7.25997202778986e-01
 H  2.49285687075052e+00 -1.93412867524504e-01 -4.23996412488044e-01    -5.77206253439968e-01 -1.83570363521218e+00 -3.28891198719659e+00
 H  2.53489619125768e+00  5.47497322674443e+00  6.07536412222607e+00    -1.79383595466541e+00 -7.84545053480761e-01 -7.54301726214043e-02
 O  6.52863677084481e+00  2.55664834281225e+00  2.34781807634571e+00    -3.52074481685388e-01  1.05777576296530e-01 -3.55807713027478e-01
 H  6.07512309634009e+00  6.40598814875732e+00  3.88766196393261e+00    -7.57613750378516e-01  4.58602034307521e+00 -1.63596606543420e+00
 H  5.27699491351558e+00  6.82545117739002e+00  5.29787007762324e+00    -3.62154353426229e+00  2.18237958496178e+00  4.85668133668099e-01
