   96
 8.60913085937500e+00  8.60913090000000e+00  8.60913090000000e+00
 O  1.68510439340088e+00  8.17278471397087e+00  8.58779831885626e+00     3.13264289487438e-01 -2.83907035362936e-01 -7.47009813839150e-02 
 H  3.48290124998310e+00  5.72746822228054e+00  3.16633871305942e+00     7.41971070076832e-01  4.03145252372552e-01 -1.73530110203137e+00 
 H  2.15622123829209e+00  3.58973169657662e+00  7.33570914066096e+00     2.39693176040661e+00  5.10827844684467e-01 -1.74822754976355e+00 
 O  1.09006518486638e+01  8.12245832583178e+00  3.78504680866331e+00    -3.09177011577357e-01 -3.04730471565895e-01  1.79341083993172e-01 
 H  5.04861275407012e+00  6.98142316182625e+00  6.16305871394178e+00    -1.41790325817543e+00 -1.49602273598175e+00  1.40921047803543e-02 
 H  7.06148129655548e+00  6.22505438140954e+00  6.78418284096691e+00     7.42479138586382e-01 -1.44185099970932e+00  6.86809111581517e-01 
 O  3.65021384746327e+00  6.05343170657574e+00  4.09147698853128e+00     1.36134539835057e-01 -5.56300968445025e-02 -5.99990221791012e-01 
 H  4.77323951660153e-01  3.05446863047707e+00  5.17864170821683e+00    -3.46226298827528e+00 -3.36428748753234e-01 -4.79114002782848e-01 
 H  3.74675438559707e+00  8.15298675788109e+00  7.13331737220115e+00     2.30184210138180e+00 -1.85448610793602e+00  6.50017858867280e-01 
 O -4.76610722249916e-01  1.97700392934586e+00  2.81900909014388e+00    -2.08351659725512e-01 -1.31240659470955e-02 -1.09281475660121e+00 
 H  3.30830053902641e+00  2.99815219181934e+00  5.60887453067109e+00    -1.26864321545739e+00 -3.19800674119800e+00  1.84618230567337e+00 
 H  2.88218392105204e+00  7.19601509968887e+00  3.68209299136296e+00    -2.17769446994725e+00  1.46693741019200e+00  1.51106677471472e-02 
 O  1.95904500764248e+00  3.08793819543467e+00  8.31010052907817e+00     3.52546311830953e-01 -2.89685031852915e-01  4.36910804460760e-01 
 H  4.89683768540069e+00  2.54692253990641e+00  1.64865299778671e+00     1.50753295755322e+00 -6.50154725482152e-02  2.51532869613583e+00 
 H  5.05468016828789e-02  6.20673166215298e+00  5.96315490128196e-01    -1.41200350789768e+00 -1.67620958259986e+00 -2.19479958681911e-01 
 O  7.61628667014910e+00  3.58704450630044e+00  7.21904452469439e+00    -3.56481507316046e-01 -4.42611195025476e-01  6.70587622098039e-02 
 H -3.48636002410408e+00  4.93258078224810e+00  1.14549266464173e+00    -3.99268368203645e+00 -3.64489730003707e+00  2.93480927038925e+00 
 H  5.51789362315540e+00  3.24488162895210e+00  3.95207478324357e+00    -4.64918298205103e-01 -5.08799819466100e-01  1.35042551280454e+00 
 O  9.77413863004368e-01  6.29000038633258e+00  5.53319104794993e+00    -3.35052750935723e-01 -1.22882458756518e-01  4.75005123636114e-01 
 H  4.56275275794374e+00  5.75480051532876e+00  7.80671963617672e+00     2.41076914693993e+00  2.68135375139661e+00  8.49583526073431e-01 
 H  5.97463973161541e+00  7.10125712153675e+00  1.54189742291297e+00     1.84331119917658e+00  8.55151513306182e-02  6.76019107142107e-02 
 O  4.05025497507455e+00  5.11105834693989e+00  1.88422182059362e+00     1.45895192116782e-01  4.31787084165161e-01 -2.00009859588070e-01 
 H -6.59243490596350e+00  3.48273780009668e+00  1.32723233910527e+00    -5.54029093813104e+00  1.53726497022762e+00  3.41594030041353e+00 
 H  6.78786669136654e+00  4.24135477630016e+00  4.89465978095415e+00     4.70356629822662e-01 -5.65267168654503e-01  3.02930249039434e-01 
 O  6.56327427350898e+00  7.76154702757872e-02 -5.99187268920014e-01    -4.60166897799165e-01 -1.25941770570514e+00  7.02444224373277e-02 
 H  6.30425349730983e+00  7.04862235697663e+00  5.21498078361684e+00     1.86858401340243e+00 -4.34001090458725e+00  7.22410310018626e-01 
 H  1.76072397852632e+00  6.08588661676806e+00  6.97583820704295e+00     3.80414885701257e+00 -2.68353747437165e+00 -2.45134861256411e+00 
 O  1.57867303799736e+00  1.10715061326918e+00  2.18305429013273e+00    -7.19917014645624e-01 -3.29193872245261e-02 -4.70413529190323e-01 
 H  7.85019973340139e+00  8.08313316779203e+00  1.27189740410671e+01    -1.83821832346794e+00 -6.58138752518011e-01 -3.00448572083815e+00 
 H  8.24783644315290e+00  6.41709304077955e+00  7.79023504149410e+00    -1.08714906286037e+00  1.21923768836691e+00 -5.01367302217693e+00 
 O  4.13801716937878e+00  1.11865330499243e+00 -5.47910263306844e-01    -3.73391183847118e-02  1.60995204776026e-01  3.83812473509184e-01 
 H  7.19592046610752e+00  1.97368776032655e+00  3.18870187681856e+00    -2.81013346178077e+00 -6.74889006363069e-01 -3.30435706773804e-01 
 H  4.73527493167020e+00  8.61884279122402e+00  3.01762272925430e+00    -7.28237124545424e-01  1.71864007160224e+00 -8.60964021762531e-01 
 O  8.57359816286562e+00  1.86927905416493e+00 -2.29105703766907e-02    -1.75567141765078e-01  6.08835630324095e-02 -5.67977124113656e-01 
 H  9.42833497414757e+00  7.86640898052670e+00  6.81723945162772e+00    -1.89361137896018e+00  8.22177693760116e-01 -6.89900232595827e-01 
 H  7.14559525296657e+00  8.25501636332467e+00  1.00477863025923e+01    -4.31882762557316e-01  1.23466012631506e+00  3.24780691945152e-01 
 O  8.76591422401648e+00  8.41458142528243e+00  3.69091868293786e+00     3.71839305638571e-02  9.46256960603343e-01 -6.10971327009742e-02 
 H  2.91589330623620e+00  4.91299400257498e+00 -6.82958168603937e-01     2.96183684751556e+00  1.05278902738608e+00 -6.56882036359241e-01 
 H  1.06194023853880e+01  5.92596601698181e-01  4.41823914341061e+00     1.50885889995563e+00 -4.44821197370972e-01  3.40443987900612e+00 
 O  3.38532676980599e+00  3.85180752165597e+00  6.14087207068164e+00     2.99160643373823e-01  6.96269395939646e-01  2.34451548053480e-01 
 H  4.86266708110518e+00  1.99563403630917e+00  7.87556857752077e+00    -2.35637382103004e+00 -9.14717449602549e-01 -2.49675671481083e+00 
 H  7.79890359213732e+00  4.55791785199204e+00  7.16252384484072e+00    -1.22356994530455e+00  8.82471496534894e-02 -1.91571826117472e+00 
 O  7.15714601922024e-01  3.85749080188408e+00  4.65666005692165e+00     3.28976182878281e-01  1.03235185221993e+00 -1.13295247633181e-01 
 H  4.04577056253942e+00  2.84634860405714e+00  2.62645712997161e+00     9.20842516713046e-01 -6.10932291133971e-01  8.78193388644025e-01 
 H  6.01592220132983e+00  1.11345488217428e+00  6.09435166181809e+00     8.90869386301397e-01  3.25563134694005e+00  3.87852826220699e+00 
 O  6.16776334339589e+00  8.19685619537451e+00  1.04219685500216e+01     3.94548606883883e-01  4.35180704283935e-01  7.34610071402437e-01 
 H  4.21609867221250e+00  5.35160339641075e+00  2.95788351541103e+00    -2.69234809408682e+00 -3.22041043883300e-01  1.21936185974971e+00 
 H  7.04487031490989e+00  3.44110123791525e+00 -2.11730042139002e+00     4.04238415567195e-01  2.55208878690872e+00 -2.57407828977782e+00 
 O  9.57291497142499e-01  6.13903800608225e+00  1.41074218046855e+00     3.25685283535689e-02 -3.16379442251451e-01 -1.03309926581225e-01 
 H  3.26961570763881e+00  3.79463204437709e+00  5.06123014898767e+00     9.39306818988347e-01  7.93348120588159e-01 -3.22525266210587e-01 
 H  5.57034997005691e+00  4.36379250717461e-01 -8.80299852386219e-01     3.71894569371248e-01 -3.22310697844792e+00 -2.51517088427410e-01 
 O  8.90243322188894e+00  5.21153631567922e-02  6.33101344110000e+00    -2.27785557643225e-01 -7.05859386246353e-01  3.98906823230568e-01 
 H  1.84746697892520e+00 -3.00805742172417e+00  1.57040652689226e+00     1.62537015878077e+00 -1.89183208573170e+00 -2.70961351408712e+00 
 H  4.74167358999257e+00  3.87479147768393e+00 -1.01615201692319e+00     1.00484277385663e+00  2.98014623003541e+00  3.93141566016964e-01 
 O  1.95900339836797e+00  5.46038538565602e+00  7.73066425491926e+00    -2.28798544675601e-01 -2.30351899155304e-01 -4.95076147669155e-01 
 H  2.22618471974475e+00  2.22443782657054e+00  2.38317197847629e+00     9.24869239928505e-01  7.07378105861319e-01  2.02163216356175e-01 
 H -1.15869133404476e+00  6.11057139659338e-01  7.86784758572513e+00    -8.77192381790820e-01 -4.55119314304151e-01  2.00751270419577e+00 
 O  4.35650838486816e+00  1.95793672865216e+00  2.34896837150126e+00     4.77198845200099e-01 -7.68113410633870e-01 -2.69710208180607e-01 
 H  8.35636892391205e+00  5.03711928610462e+00  1.22176003777222e+01     2.75972273907489e+00  2.04404628049729e+00 -2.09133303720225e+00 
 H  4.94276253253749e+00 -1.02128217617581e+00  3.91431803293170e+00     1.77084072764413e+00  1.77519721025686e+00  1.20257954544206e+00 
 O  3.63691356993780e+00  7.80024110661731e+00  1.51327524914584e+00     4.90902273782918e-01 -4.51965544230763e-01 -5.68879750417339e-01 
 H  1.65141374179695e+00  8.52209372459720e+00  9.43887822472137e+00    -1.17468183423085e+00  3.11834805185395e-01 -5.05049955047304e-01 
 H  6.21016517247685e+00  2.81680715866373e+00  5.30184868427064e+00     1.75319925876788e+00  2.93401954804917e+00 -1.97711810951856e+00 
 O  4.09877322404343e+00  7.34250272958868e+00  6.82595397099232e+00    -4.81178764656663e-02 -8.74303623608513e-01  1.16921342613684e-01 
 H  2.73075489762186e+00 -7.83073940748185e-01  9.90946575955637e-01    -6.22237175900159e-01 -1.78139421416403e+00  3.01430568088915e-01 
 H  6.62249568460055e+00  7.60315129052297e+00 -5.43428070675294e-01    -1.50318693820552e+00  3.77131700164875e-02  1.40415346137689e+00 
 O  5.82183489058537e+00  1.06829821752663e+01  6.11885028196284e+00     5.15070918556003e-01  9.14733021080610e-01  8.08476706158243e-02 
 H  1.15598480491805e+00  2.63754780819733e+00  1.26623756386490e-01     1.28801284531071e+00  2.74287463418203e-01  3.93051599947091e+00 
 H  9.77576613526775e+00  3.19908466124388e+00  3.07140190957491e+00     1.11509806488193e+00  2.97161570222614e+00  7.05798126667648e-01 
 O  7.68385221221466e+00  6.09989777421968e+00  3.33671641828396e+00     2.74137855109242e-01 -1.97053465598721e-01  9.03834137462243e-01 
 H  4.23416983010262e-01  1.30616809654308e+00  3.09593312021497e+00    -6.90557969808628e-01 -1.30199928417488e-01  1.38022816839748e+00 
 H  1.04989827809894e+01  8.63986502194363e+00  2.83868123162620e+00    -7.46279875147266e-02 -3.80079996744914e+00 -1.19447280252456e+00 
 O  7.65968293606952e+00  6.22685345267263e+00  8.55664210140904e+00    -2.83426542018952e-01 -2.84633397903308e-01 -2.60623875599883e-01 
 H  3.63549650606246e+00  9.17636976862863e+00  5.09537273622375e+00     2.32067482998023e+00  1.18622798847032e+00 -1.24410486397261e+00 
 H  1.60809053462943e+00  6.68505920253069e+00  4.92851653756827e+00    -5.33203838503441e-02 -1.21874208335800e+00 -8.76760059249906e-01 
 O  5.04554903194623e+00  4.86542408585558e+00  7.88058215758892e+00     3.36800553644705e-01  1.78084652856566e-01 -5.65244504050036e-01 
 H  1.11518424950353e+01  7.65500095374698e-01  6.06985761479604e+00    -1.78358893301732e+00  2.43574275685166e+00 -2.29542273944045e-01 
 H  7.27808712635471e+00  3.36629245488765e+00  2.22542433188150e+00    -3.12591684862713e-01  1.72340384307112e-01  1.03944458177068e+00 
 O  4.78882315927397e+00  5.34366420576836e-02  3.96919384642445e+00    -3.21504865386398e-01 -5.24590323766301e-01  1.39242713921290e-01 
 H  7.61282114779035e-01  4.86320063100063e+00  5.15149784764236e+00    -7.79867663602367e-01  9.42942522794239e-01  1.61337657048384e+00 
 H  1.10590167765318e+00 -5.44569547780169e-01  3.86670646310140e+00    -1.89585126426939e+00  4.80806734830849e+00 -4.46201425902787e+00 
 O  2.66939094090773e+00  1.23718173593452e+00 -3.45974932698013e+00     6.07293534394841e-01  4.75730647230071e-01 -2.61732517683538e-01 
 H  3.78520056227222e+00  1.62850259368459e+00  3.98895299133107e-01     4.09584072479483e-03  7.89810584870085e-01 -2.25675401467613e+00 
 H  8.79374226984836e+00  1.94872735594355e+00  9.30299830206652e-01     4.60793009276274e+00  7.93919038684277e-01  2.25943180772116e+00 
 O  6.00508787597494e+00  6.29714221294579e+00  5.84285986912866e+00    -5.27255424241697e-01  3.69325196752126e-01  5.38277572300385e-01 
 H  5.54240779670609e+00  7.24112919577807e-01  4.24470014882051e+00    -1.84728265613654e-01 -2.75542020988035e-01  6.07955607277712e-01 
 H  1.40824100580889e+00  7.40089150206977e+00  8.03223986908757e+00     1.92031318524377e+00  2.32691322021881e-01  2.06783480839998e-01 
 O  2.09514325489169e+00  3.45584696170486e+00  2.44216932275289e+00    -3.43993580982013e-02 -1.03422040152587e+00 -6.49581033939578e-02 
 H -5.72320367190612e-01  3.03591592297967e+00  8.10237678691481e+00     1.99445800290801e+00  1.61781441156711e+00  3.74831391904069e+00 
 H  3.58740939431731e+00 -1.86961325049070e+00  4.99488603778205e+00     1.23773597303620e+00  2.38996328470569e+00 -7.63246423853257e-01 
 O  6.54217749278639e+00  3.49754433500379e+00  4.05410457043997e+00    -6.02614545554720e-01  1.09161614874674e+00  3.42304155641388e-02 
 H -1.32379303340310e+00  4.37896648175066e+00  1.33255408004745e+00    -1.55055478789611e-01  1.10900649488573e+00 -3.19392108929495e+00 
 H  6.81882968089222e+00  5.33467247884507e+00  1.13011060139855e+01     1.23167537470500e+00  2.03864433132546e+00  6.57295913613029e-01 
 O  6.49176477027461e+00  3.90015354097010e+00  1.46236046101356e+00    -4.77029981167533e-01  7.80184083894184e-01  7.55000357549952e-01 
 H  3.92419311209309e+00  6.89288364826106e+00  1.12489357110443e+00     1.70813102099380e+00 -4.06392943246973e-01  1.03989677125988e+00 
 H  5.16729341234527e+00  5.91458257565825e+00  5.51981807627956e+00     1.25649825656925e+00 -3.53038808451548e+00  1.98812262492305e+00 
