   96
 8.60913085937500e+00  8.60913090000000e+00  8.60913090000000e+00
 O  2.41065108784999e+00  8.23214144443308e+00  7.08948325793507e+00     1.56330757367914e-01  1.52558317332916e-01 -4.43858007804411e-01 
 H  5.64158544667290e-02  6.90513847743825e+00 -6.33595168477499e-01     6.09549846040493e-01 -2.38573434592610e+00 -1.77675064633612e+00 
 H  1.26571792967752e+00  5.23104941473555e+00  6.51510265151808e+00    -1.73278993728022e+00 -3.18410589241276e+00 -2.71705517890502e+00 
 O  9.52775425490834e+00  8.61447380687468e+00  4.93513648604417e+00    -1.15745745966318e-01 -3.99185422711221e-01 -6.15969794738238e-01 
 H  2.77604083121922e+00  4.93769613386463e+00  7.52830993887016e+00     3.45713177759317e-01 -9.58107690162883e-01  1.27674975412741e+00 
 H  7.66710815522296e+00  3.16475840970693e+00  4.58528084743168e+00    -2.40638965416320e+00  7.53156367347588e-01  2.14472688564798e+00 
 O  1.84866158022476e+00  7.75412461936550e+00  3.04986749216159e+00     7.98866586956374e-01 -7.47878781570288e-01  1.92236680499494e-02 
 H  3.05518341273420e+00  5.44183093031437e-01  6.78128329401896e+00     4.10077541909458e-01 -2.61623007817561e+00  3.66400918875243e+00 
 H  5.16245601131525e+00  7.28911430717517e+00  6.83629637324969e+00     3.68346891392934e+00 -4.19747124481024e-01 -1.37462827278217e+00 
 O  2.57409604694703e-01  2.46647335404649e+00  3.07527136346580e+00    -4.12225068598763e-01  1.49339841291702e-01  1.82311374323599e-01 
 H  4.86340551400663e+00  4.34564461824427e+00  8.47793098691707e+00    -6.80054699389801e-01 -6.93046558338360e-01 -2.51798947677550e+00 
 H  4.09653074553563e+00  1.10488871419724e+01  6.85097514270411e+00    -1.33587448031300e+00  1.59967069380217e+00 -1.28421631722396e-01 
 O  2.07275217200318e+00  5.52335997332916e+00  7.08897157583854e+00    -1.17563145764924e+00  5.11886184858307e-01 -4.21672020707563e-01 
 H  5.28573053711615e+00  4.45540660037169e+00  3.42383894461970e+00     1.17395806163221e+00  9.11772802207045e-01  1.03351810790455e+00 
 H  4.92310045504587e-01  5.42195627411235e+00  6.53932852777585e-01     4.41890679744237e+00 -8.89501132942298e-01  3.17913275367634e+00 
 O  7.69872512647040e+00  2.34585565459886e+00  7.51729468313397e+00    -1.68871846751151e-01 -1.29075554524610e-01 -5.25632042370909e-01 
 H  1.87478311259281e+00  4.81182720371497e+00  2.26624963003994e+00     1.12492537892424e+00 -2.91846752727943e+00 -2.47581152167208e+00 
 H  3.79452341364925e+00  3.10752877168012e+00  5.02889623496228e+00    -2.07922924888869e+00  8.79005202405585e-01 -1.80632743605294e+00 
 O  8.80922973830130e-02  5.26193166799456e+00  3.43479166234844e+00     4.90009310778700e-01  1.02487347035786e-01 -3.56263369466095e-01 
 H  6.41863675145764e+00  3.79458090178497e-01  4.65117417208044e+00    -3.16511384112037e-01 -1.53280307197226e-01  9.01030320962303e-01 
 H  2.61519921534041e+00  5.51903402716782e+00  7.89856398958471e-01     5.99065872609211e-01  1.18373775901109e+00  6.86621758741783e-01 
 O  3.67673696567757e+00  5.64728868503833e+00  6.09970901045514e-01     6.12881741195638e-01  2.59088531580542e-01 -5.85541281137394e-02 
 H -8.33603792074877e-01  3.33874887863664e+00  6.93790686191298e+00    -1.18689360740755e+00  2.47273431608374e+00  1.20364820631427e+00 
 H  6.86876227139703e+00  6.12178865677999e+00  5.12358506056267e+00     1.55579232997620e+00  9.88482277286262e-01  3.96742526888487e+00 
 O  5.62418346039329e+00  1.10843902043182e+00  7.62590432959658e-01    -8.17508988875252e-01  7.26580525951850e-02  4.85072850906219e-01 
 H  4.88066134734821e+00  5.06352140601758e+00  2.17071200232282e+00    -1.31119773779744e+00 -3.59648947193939e-01  1.09831599691973e+00 
 H  2.57136091931865e+00  7.90329530529362e+00  3.88790048348300e+00     2.39140859380075e+00  1.41148579011150e+00 -1.13893010498828e+00 
 O  2.62255483894908e+00  2.13958221251983e+00  4.56017357514249e+00    -2.41669936659769e-01  2.49634521893359e-01  1.12498859670729e-01 
 H  7.57974290629810e+00  7.24345022905580e+00  9.03883411663353e+00     1.77609533287710e+00 -1.89122825012617e+00  3.44288835121473e-01 
 H  7.27491714482816e+00  6.17375050522965e+00  7.16943654976528e+00     3.13839328918782e+00 -1.04477875142273e+00  5.63633712332734e-01 
 O  3.39871656199916e+00  2.72016375370323e+00  1.30776467588387e+00    -1.21576619096719e-01  9.95538199848397e-02 -3.88403255430174e-01 
 H  7.49631809970846e+00  4.66762306361991e+00  5.71883229505798e+00     1.85826510193573e+00 -4.36863034818802e-01 -2.15846198723932e-01 
 H  7.57423044727888e+00  4.48149566601690e+00  2.01464899909131e+00    -1.01292604436174e+00 -1.04431472858296e+00 -1.53556997842374e+00 
 O  8.81913943958083e+00  7.98185091589344e-01  8.25832353112345e-01    -1.76551601743278e-01 -2.45469475134561e-01 -3.67377269861664e-01 
 H  8.81594824982163e+00  9.04491074554674e+00  5.52692755888104e+00     1.50009152894419e+00 -1.84853939720635e+00  3.68932603392485e+00 
 H  5.72630546845870e+00  7.13715955826998e+00  8.31590337079125e+00     2.46430394860371e-01 -3.04473217571782e+00 -1.68220781290092e-01 
 O  8.03955877925040e+00  7.35232285185711e+00  3.00821504501199e+00    -1.52188002079604e-02 -2.72208801311277e-01  3.13585750319875e-01 
 H  2.56126556585637e+00  3.39130444614474e+00  1.24796667036677e+00     1.05527837873166e-01  1.17907771488847e+00  9.33132043233011e-01 
 H  9.98888711921658e+00 -3.52676466781771e-01  4.17764094302157e+00     4.48305706518392e-01  3.31483363913269e+00 -1.70863053678917e+00 
 O  4.10182786222965e+00  3.29852883081879e+00  6.28139268861893e+00    -8.39390831357220e-02  1.65064439209511e-01  1.09307544732884e-01 
 H  5.01571055686957e+00  4.03476765918696e+00  6.66451715834521e+00     1.08839107080330e+00  4.47593706280612e-01 -3.23141544404275e+00 
 H  6.87102647353074e+00  1.62888676807504e+00  7.53217217476805e+00    -2.34547287963082e+00 -7.61037172000892e-01 -1.97503273831641e+00 
 O  1.84117744809836e+00  2.21146990572221e+00  7.24726717573103e+00     2.58920274907753e-01  6.61050627582130e-01  7.88365657227937e-01 
 H  1.66715125677316e+00  2.63098582493104e+00  6.32839060285494e+00    -9.58719197923425e-01  2.57814653189840e+00  5.13086548640404e-01 
 H  5.71266054739201e+00  1.43727950991086e+00  3.16255140404615e+00     2.12516715523898e-01  1.03336704382749e+00 -1.49278084169784e+00 
 O  6.69875196585075e+00  7.70902869784696e+00  8.99699525100658e+00     3.25334513967710e-01 -9.69593337686965e-01  9.43250632338926e-02 
 H  4.32307106234402e+00  5.91976691387448e+00 -2.25634895010099e-01    -2.59291178809829e+00  7.49456547955122e-01 -1.24742814869962e+00 
 H  8.61150597950781e+00  1.64034416012009e+00  2.19069778637340e-01    -2.61768290644477e+00 -4.52127013242740e-01  2.44307593744555e+00 
 O  3.51527166228568e-01  6.42054889234751e+00  1.68251061393212e-01    -8.71015153376745e-01  6.00147867264845e-02 -4.24356702957132e-01 
 H  1.72124545104850e+00  2.55304039353788e+00  4.49700196535229e+00     2.10736800495534e-01 -3.21923690386220e+00 -1.56517753963192e+00 
 H  4.73402046416433e+00  5.86274814050426e-01  9.06921865628974e-01    -7.73688769991463e-02  5.86082427045525e-01  4.25140463962153e+00 
 O  6.87532720018590e+00  1.08147083962592e-01  5.38578180862204e+00     3.58258707548576e-01 -3.90879518142411e-01 -1.14104971547079e-01 
 H  4.71824762736374e+00 -1.91277791971132e-01  3.04557880655752e+00     6.57087626995549e-02  1.88595699617872e+00 -1.15769994393130e+00 
 H  3.32420056920838e+00  1.48232129455554e+00  1.13272493667727e+00    -5.25104656815408e-01  1.70559318664187e+00  2.54190909201367e+00 
 O  3.18817849523258e+00  5.45416057711345e+00  5.06126525839858e+00     2.09235508954468e-01  3.37206649396275e-02 -7.32794669577884e-01 
 H -9.85264090410763e-02  3.32072610648043e+00  3.32926180329599e+00    -2.39193254358861e+00 -2.86520283836857e+00 -2.80514461340660e+00 
 H  2.77526711851337e+00  1.12999589425615e+00  4.65121014478190e+00     1.76258479756273e+00  1.27514737672970e+00 -1.72601644666401e-01 
 O  4.47956349714819e+00  4.41642185849599e+00  2.84161046770139e+00     4.04936832231327e-01  6.84552732159285e-02 -5.42691883984881e-01 
 H  5.94482725600109e+00  3.99945214273467e+00  9.47865149122363e+00     1.38333828447881e+00  2.15365707887575e+00 -2.13652014164156e+00 
 H  7.33866658287338e+00  2.08991833860708e+00  2.71693346390043e+00    -6.09111191408779e-01  3.44674734488117e-01  7.10539376647100e-01 
 O  4.42672246632900e+00  7.51018931543229e+00  2.83792654357172e+00     4.90100586771324e-01 -7.05881729980961e-01  5.36117145885678e-01 
 H  2.59215380269603e+00  8.67337820849098e+00  1.01636939761074e+01     2.34825424730406e+00  1.53231508740266e+00  1.63379533015621e+00 
 H  3.54540710784538e+00  4.46721993581520e+00  4.83257486953924e+00     1.03250270956534e+00  2.32381195485433e+00  1.59356454915100e-01 
 O  4.98893617217611e+00  6.94622732609569e+00  7.69545449506477e+00     3.46012797547006e-01  5.69207966564971e-02 -2.07993502267899e-01 
 H  1.86337714445650e+00 -1.87070248488148e+00  2.44566904707870e+00    -2.60488461774575e+00 -1.89099894021008e+00  1.97771335897685e+00 
 H  4.98893985006644e+00  6.79368834058396e+00  2.19789051677404e+00     3.04926880766787e+00 -1.34860200771947e-01  2.24790864702452e+00 
 O  4.62513802142222e+00  9.93945283487714e+00  6.86594825087762e+00     6.27729081372297e-01 -3.30024139882385e-01 -6.11079610773265e-01 
 H  5.34645350671619e-01  7.34141263268131e-01  1.91972700871287e+00    -2.59390837132073e-01  4.59868340112333e+00 -1.99692730186274e+00 
 H  8.75740228845270e+00  3.75035084968500e+00  1.28126705624527e+00     5.81601937126491e-02  9.35011411830788e-02 -1.35486123045066e+00 
 O  7.99247260168513e+00  4.19032717254918e+00  1.03789599653868e+00     4.70592061057045e-01 -7.91248991375872e-02  7.58431253939708e-01 
 H  1.07863782214145e+00  7.41734834948064e-01  2.76705815927042e-01     1.32988432729871e+00  5.70923394122896e-01  5.93612571856237e-01 
 H  7.68857118359267e+00  8.10854766238426e+00  2.59108532547666e+00     8.56705138656501e-01  9.07551511992663e-01 -2.21029602112041e+00 
 O  7.75181098861508e+00  6.09883358315814e+00  6.38353670967232e+00    -2.89924501457516e-01 -1.61386282591450e-01  3.81295098681564e-01 
 H  5.24210209267255e+00  9.95475526342142e+00  6.21941328215242e+00    -7.57253972845392e-01  8.54571371259923e-01 -2.82285697312522e+00 
 H  6.08978035785655e-01  5.09876730618111e+00  4.28398113095643e+00    -1.12540667158466e-01  1.83894078554450e+00 -1.00455394290198e-01 
 O  5.73665834872294e+00  3.91459693304626e+00  8.58801596166279e+00     1.35913597436130e-01  4.77165326374640e-01  3.85831719912883e-01 
 H  6.53406417932893e+00 -5.70332458773440e-01  5.92693368780309e+00    -2.09659748522342e+00  1.74048843418218e+00  8.22946569022920e-01 
 H  6.44455604684292e+00  2.72679278878455e+00  1.36733389444427e+00    -2.66721898767350e+00 -4.96076876115000e-01 -2.70448798703795e-01 
 O  5.17115295167189e+00  1.29915692710441e+00  4.03007693603801e+00     8.00879194487841e-02 -1.00656460826308e-01  1.94308849162552e-01 
 H -8.52829431406088e-02  6.50471931444270e+00  3.29419721710466e+00     9.02729833876525e-02  1.72789570040300e+00  1.68837239901821e+00 
 H  6.40944856026270e-01  1.92431589264704e+00  3.80973083086333e+00    -3.43669607862762e+00  8.03559976471371e-01  6.20893240906038e-01 
 O  3.11273226296418e+00  5.28060998272651e-01  9.59767706905037e-01     7.33311616752804e-01 -2.61628354110699e-01  8.43623869634573e-01 
 H  4.32026129566764e+00  2.51413565995750e+00  9.03266706427293e-01     2.49894213648313e+00  1.68511847351174e+00  1.18028882493722e+00 
 H  6.34656666841727e+00  2.95868893797215e-01  8.06936876269493e-01     1.27714222473850e+00 -3.24346102797863e+00  1.69660114245002e+00 
 O  5.81194805663878e+00  6.10377723439714e+00  4.74640754597593e+00    -3.17159238840353e-01 -8.03447850586465e-01  1.26156981083289e+00 
 H  9.62382280292768e+00 -3.35266836738000e-01  2.76092862732762e+00    -3.01287244269035e+00  3.12232205163928e-01  1.25711932392802e+00 
 H  2.15779041391094e+00  7.45820482255124e+00  6.69801356055881e+00     5.10214689153019e-01  5.92767742584280e-01 -2.45777003204427e+00 
 O  1.69753690531586e+00  4.23794968506844e+00  1.42819949260983e+00    -3.55227541031402e-01  3.10002687457347e-01  4.67971790157256e-01 
 H  1.24105842979377e+00  2.85085362944011e+00  7.68937104022314e+00    -5.56752751340229e-01  2.37996024021960e+00 -9.20230788268810e-01 
 H  4.71694441982115e+00  2.15225124245667e+00  3.86267107930951e+00    -2.07374627640633e+00  1.25322125978927e+00  3.16735928120510e-01 
 O  7.48661724712301e+00  3.81604609764985e+00  5.23926854778456e+00    -6.47217331334195e-01  9.35394609311334e-01 -7.26012207859552e-01 
 H  2.49285595544900e+00 -1.93403229837146e-01 -4.24000311673915e-01    -5.77251078775253e-01 -1.83582815039736e+00 -3.28896219435338e+00 
 H  2.53484373001112e+00  5.47492232783227e+00  6.07531814691623e+00    -1.79306066147993e+00 -7.84201749673357e-01 -7.58410321726658e-02 
 O  6.52861246050176e+00  2.55665368895071e+00  2.34780638685323e+00    -3.52135299383672e-01  1.05800583363091e-01 -3.55738906107868e-01 
 H  6.07513665965234e+00  6.40601822563388e+00  3.88763805895125e+00    -7.57503362028400e-01  4.58600690526760e+00 -1.63637420442544e+00 
 H  5.27696381689318e+00  6.82538857334595e+00  5.29789867860844e+00    -3.62200277542710e+00  2.18242652980207e+00  4.85971404468113e-01 
