4
Frame 1
C 5.99242 1.60965 58.65444
C 6.51216 0.52675 58.98802
C 7.80102 0.47286 59.02498
C 8.23568 58.22154 0.21936
4
Frame 2
C 6.07524 1.60767 58.60366
C 6.38494 0.43146 59.06164
C 7.88418 0.56203 59.04686
C 8.19692 58.22965 0.17463
4
Frame 3
C 6.11457 1.57378 58.55856
C 6.43468 0.43440 59.11465
C 7.82758 0.53755 59.09662
C 8.16445 58.28508 0.11697
4
Frame 4
C 6.10071 1.51671 58.45915
C 6.45479 0.51095 59.20149
C 7.82621 0.51892 59.21852
C 8.15956 58.28423 0.00764
4
Frame 5
C 6.17997 1.35506 58.30955
C 6.46484 0.61667 59.37207
C 7.79866 0.52379 59.40830
C 8.09781 58.33530 -0.20312
4
Frame 6
C 6.29674 1.16879 58.23243
C 6.47043 0.69165 59.47463
C 7.80206 0.48468 59.52370
C 7.97204 58.48569 -0.34395
4
Frame 7
C 6.34416 1.04485 58.21554
C 6.47685 0.78343 59.50114
C 7.79268 0.41585 59.58658
C 7.92759 58.58667 -0.41646
4
Frame 8
C 6.38895 0.88464 58.20101
C 6.50251 0.91858 59.52355
C 7.76495 0.30971 59.67375
C 7.88487 58.71787 -0.51151
4
Frame 9
C 6.52934 0.63850 58.17346
C 6.53621 1.06402 59.57098
C 7.73486 0.20281 59.78824
C 7.74087 58.92548 -0.64588
4
Frame 10
C 6.53147 0.59259 58.14930
C 6.56966 1.08165 59.60446
C 7.69974 0.20275 59.81978
C 7.74041 58.95382 -0.68673
4
Frame 11
C 6.46940 0.68669 58.16824
C 6.55118 1.02563 59.57596
C 7.71805 0.23998 59.77275
C 7.80265 58.87851 -0.63015
4
Frame 12
C 6.54439 0.74620 58.20633
C 6.42773 0.98785 59.53032
C 7.84258 0.25159 59.71845
C 7.72657 58.84517 -0.56830
4
Frame 13
C 6.68453 0.72672 58.15007
C 6.38360 0.94432 59.60770
C 7.88000 0.32546 59.75112
C 7.59315 58.83431 -0.62209
4
Frame 14
C 6.54069 0.81631 58.05365
C 6.56819 0.91643 59.66227
C 7.71478 0.37859 59.83274
C 7.71763 58.71948 -0.66186
4
Frame 15
C 6.53366 0.71864 58.24042
C 6.46164 1.07669 59.46361
C 7.81038 0.15518 59.72692
C 7.73560 58.88030 -0.54415
4
Frame 16
C 6.53356 0.64205 58.17356
C 6.48939 1.12941 59.54999
C 7.76494 0.14902 59.77429
C 7.75339 58.91033 -0.61103
4
Frame 17
C 6.51021 0.66337 58.13557
C 6.58503 1.04497 59.58644
C 7.68250 0.24443 59.83378
C 7.76354 58.87804 -0.66898
4
Frame 18
C 6.56866 0.67854 58.15875
C 6.53219 1.02418 59.57662
C 7.72499 0.25827 59.79527
C 7.71545 58.86982 -0.64383
4
Frame 19
C 6.59524 0.72147 58.17622
C 6.39696 1.05169 59.53206
C 7.86582 0.19566 59.72411
C 7.68326 58.86199 -0.54559
4
Frame 20
C 6.48732 0.83012 58.20221
C 6.44227 1.00491 59.47641
C 7.84566 0.23482 59.75972
C 7.76603 58.76096 -0.55154
4
Frame 21
C 6.47730 0.75057 58.09792
C 6.54234 1.06611 59.62540
C 7.72799 0.23678 59.80600
C 7.79365 58.77735 -0.64251
4
Frame 22
C 6.58252 0.63046 58.17885
C 6.49432 1.13985 59.54300
C 7.79216 0.11231 59.75844
C 7.67228 58.94820 -0.59349
4
Frame 23
C 6.47648 0.71674 58.20009
C 6.56785 1.06185 59.51802
C 7.71888 0.18162 59.77266
C 7.77807 58.87060 -0.60397
4
Frame 24
C 6.51633 0.70698 58.14316
C 6.55651 1.05316 59.60634
C 7.71006 0.23022 59.78183
C 7.75838 58.84045 -0.64454
4
Frame 25
C 6.58628 0.68504 58.10841
C 6.51743 1.04530 59.61922
C 7.77389 0.23247 59.81265
C 7.66368 58.86800 -0.65348
4
Frame 26
C 6.55009 0.74922 58.20359
C 6.55191 0.99510 59.53850
C 7.72678 0.26123 59.75617
C 7.71249 58.82525 -0.61147
4
Frame 27
C 6.40946 0.81151 58.17770
C 6.50819 1.09434 59.59569
C 7.71953 0.19671 59.69832
C 7.90411 58.72826 -0.58491
4
Frame 28
C 6.40126 0.73018 58.13051
C 6.62907 1.09019 59.52294
C 7.70719 0.13086 59.90559
C 7.80376 58.87959 -0.67223
4
Frame 29
C 6.53821 0.63785 58.13581
C 6.65133 1.08973 59.58403
C 7.66369 0.16291 59.89261
C 7.68805 58.94031 -0.72565
4
Frame 30
C 6.54460 0.68664 58.14557
C 6.58675 1.10147 59.66090
C 7.67024 0.19281 59.74660
C 7.73969 58.84989 -0.66626
4
Frame 31
C 6.52862 0.76208 58.16967
C 6.55451 1.03972 59.54675
C 7.77046 0.18282 59.77307
C 7.68769 58.84619 -0.60269
4
Frame 32
C 6.59963 0.74562 58.22616
C 6.50734 1.05666 59.56976
C 7.75091 0.21958 59.75158
C 7.68341 58.80894 -0.66069
4
Frame 33
C 6.54940 0.70635 58.01633
C 6.63092 1.01456 59.67226
C 7.71236 0.22166 59.80553
C 7.64860 58.88824 -0.60732
4
Frame 34
C 6.60881 0.58296 58.11875
C 6.60477 1.15837 59.74076
C 7.62971 0.15428 59.78263
C 7.69799 58.93520 -0.75535
4
Frame 35
C 6.38849 0.70484 58.31203
C 6.61547 1.16162 59.53362
C 7.63258 0.06409 59.82093
C 7.90474 58.90026 -0.77978
4
Frame 36
C 6.37391 0.73447 58.18927
C 6.65476 1.08712 59.56735
C 7.71585 0.07452 59.74391
C 7.79676 58.93471 -0.61373
4
Frame 37
C 6.55767 0.70485 58.20607
C 6.57654 1.06954 59.64418
C 7.73253 0.16113 59.71804
C 7.67454 58.89528 -0.68149
4
Frame 38
C 6.54027 0.78078 58.17764
C 6.59757 0.97977 59.60580
C 7.76761 0.22009 59.80749
C 7.63583 58.85017 -0.70413
4
Frame 39
C 6.54494 0.78673 58.19379
C 6.54650 1.02754 59.65977
C 7.75611 0.20364 59.71100
C 7.69373 58.81290 -0.67776
4
Frame 40
C 6.47656 0.75293 58.18502
C 6.56386 1.07651 59.58671
C 7.80645 0.07891 59.73797
C 7.69441 58.92247 -0.62291
4
Frame 41
C 6.35682 0.67935 58.21465
C 6.69430 1.11322 59.55671
C 7.70428 0.03977 59.88824
C 7.78588 58.99848 -0.77280
4
Frame 42
C 6.43300 0.56481 58.20189
C 6.71377 1.22061 59.68130
C 7.63311 0.02286 59.78459
C 7.76140 59.02254 -0.78098
4
Frame 43
C 6.49478 0.66190 58.16575
C 6.64050 1.17383 59.63082
C 7.77264 0.02418 59.70986
C 7.63336 58.97090 -0.61963
4
Frame 44
C 6.48310 0.82068 58.23879
C 6.62311 1.04097 59.57875
C 7.76405 0.17099 59.73606
C 7.67102 58.79817 -0.66681
4
Frame 45
C 6.53326 0.80463 58.18494
C 6.59785 1.03261 59.64844
C 7.78116 0.19706 59.73055
C 7.62902 58.79651 -0.67713
4
Frame 46
C 6.54530 0.74181 58.14255
C 6.59862 1.07286 59.68218
C 7.79179 0.15459 59.74695
C 7.60558 58.86155 -0.68489
4
Frame 47
C 6.45572 0.73346 58.25939
C 6.68496 1.08378 59.58421
C 7.68270 0.13345 59.75670
C 7.71791 58.88012 -0.71350
4
Frame 48
C 6.32314 0.73471 58.28064
C 6.72299 1.15295 59.49740
C 7.69190 0.01768 59.76321
C 7.80325 58.92547 -0.65446
4
Frame 49
C 6.44172 0.65513 58.25740
C 6.58197 1.34244 59.65038
C 7.72309 -0.01658 59.70097
C 7.79449 58.84982 -0.72195
4
Frame 50
C 6.55504 0.73470 58.23278
C 6.61684 1.14095 59.61607
C 7.73281 0.14898 59.78857
C 7.63659 58.80617 -0.75063
4
Frame 51
C 6.52414 0.82681 58.15375
C 6.65799 1.01408 59.61503
C 7.75504 0.21502 59.82064
C 7.60410 58.77490 -0.70262
4
Frame 52
C 6.57520 0.77673 58.19348
C 6.59550 1.08535 59.64249
C 7.75884 0.16202 59.70438
C 7.61174 58.80671 -0.65355
4
Frame 53
C 6.51570 0.77220 58.20993
C 6.62973 1.09203 59.57092
C 7.76521 0.10808 59.74305
C 7.63064 58.85850 -0.63711
4
Frame 54
C 6.47433 0.73702 58.23958
C 6.67822 1.14197 59.63552
C 7.64955 0.14058 59.75373
C 7.73918 58.81123 -0.74203
4
Frame 55
C 6.49558 0.64474 58.07742
C 6.73607 1.15521 59.66433
C 7.71017 0.06363 59.78381
C 7.59946 58.96722 -0.63876
4
Frame 56
C 6.46840 0.70683 57.99274
C 6.67490 1.17672 59.66598
C 7.82057 0.02917 59.80634
C 7.57741 58.91809 -0.57826
4
Frame 57
C 6.50953 0.85144 58.24568
C 6.60460 1.10595 59.57650
C 7.73355 0.20530 59.75185
C 7.69361 58.66812 -0.68723
4
Frame 58
C 6.55480 0.79888 58.20736
C 6.62636 1.07374 59.56949
C 7.75219 0.18215 59.72583
C 7.60793 58.77604 -0.61587
4
Frame 59
C 6.55643 0.74163 58.14683
C 6.62442 1.12885 59.63637
C 7.75661 0.15250 59.75810
C 7.60382 58.80784 -0.65450
4
Frame 60
C 6.50436 0.75582 58.17838
C 6.66773 1.12011 59.60291
C 7.71340 0.16074 59.79609
C 7.65580 58.79414 -0.69058
4
Frame 61
C 6.48611 0.76473 58.22264
C 6.66864 1.12602 59.54717
C 7.71227 0.12888 59.76455
C 7.67426 58.81118 -0.64755
4
Frame 62
C 6.58385 0.69124 58.16482
C 6.55899 1.23642 59.63095
C 7.80597 0.04418 59.66260
C 7.59247 58.85898 -0.57157
4
Frame 63
C 6.51189 0.87661 58.15656
C 6.65235 1.03623 59.52609
C 7.86100 0.17733 59.93113
C 7.51604 58.74063 -0.72698
4
Frame 64
C 6.55687 0.89186 58.22518
C 6.65755 1.02587 59.59151
C 7.76750 0.23453 59.79003
C 7.55937 58.67855 -0.71992
4
Frame 65
C 6.58545 0.79363 58.19951
C 6.58631 1.13755 59.62534
C 7.81128 0.10256 59.68456
C 7.55824 58.79708 -0.62260
4
Frame 66
C 6.50764 0.79708 58.20305
C 6.67953 1.10519 59.58827
C 7.74946 0.11150 59.74878
C 7.60464 58.81704 -0.65330
4
Frame 67
C 6.50327 0.75873 58.21946
C 6.71063 1.14152 59.63815
C 7.67707 0.13762 59.76553
C 7.65031 58.79294 -0.73634
4
Frame 68
C 6.52370 0.72981 58.13915
C 6.68396 1.16170 59.62930
C 7.76658 0.06144 59.76237
C 7.56704 58.87786 -0.64402
4
Frame 69
C 6.54286 0.85725 58.21825
C 6.61414 1.10570 59.57111
C 7.79252 0.12263 59.65167
C 7.59176 58.74523 -0.55423
4
Frame 70
C 6.55158 0.99052 58.18585
C 6.56214 1.03812 59.63155
C 7.83471 0.28354 59.76843
C 7.59284 58.51863 -0.69903
4
Frame 71
C 6.60058 0.82890 58.12860
C 6.62644 1.04209 59.64596
C 7.80673 0.21215 59.74848
C 7.50753 58.74767 -0.63624
4
Frame 72
C 6.57344 0.73307 58.16308
C 6.63491 1.13254 59.63493
C 7.77309 0.11780 59.72473
C 7.55984 58.84740 -0.63594
4
Frame 73
C 6.46659 0.78679 58.23491
C 6.69415 1.12082 59.57909
C 7.69081 0.13562 59.75258
C 7.68973 58.78758 -0.67979
4
Frame 74
C 6.48169 0.76790 58.19600
C 6.67881 1.13459 59.58200
C 7.73669 0.10012 59.76070
C 7.64409 58.82820 -0.65191
4
Frame 75
C 6.59867 0.73736 58.14382
C 6.59714 1.16383 59.67564
C 7.79830 0.12075 59.73158
C 7.54716 58.80886 -0.66424
4
Frame 76
C 6.59426 0.91930 58.18834
C 6.66611 0.95443 59.59670
C 7.75417 0.30618 59.73711
C 7.52674 58.65091 -0.63536
4
Frame 77
C 6.55857 0.96908 58.20429
C 6.52188 1.00193 59.50234
C 7.92662 0.20902 59.75848
C 7.53420 58.65077 -0.57830
4
Frame 78
C 6.59485 0.77953 58.13316
C 6.52035 1.16212 59.69024
C 7.80329 0.13218 59.67880
C 7.62279 58.75697 -0.61541
4
Frame 79
C 6.55494 0.71991 58.17278
C 6.68220 1.09280 59.61455
C 7.67372 0.17331 59.78985
C 7.63042 58.84480 -0.69038
4
Frame 80
C 6.50657 0.74643 58.19167
C 6.67710 1.10549 59.56033
C 7.69337 0.14101 59.82888
C 7.66424 58.83789 -0.69408
4
Frame 81
C 6.54174 0.75422 58.18020
C 6.58520 1.16728 59.61644
C 7.74218 0.10878 59.71705
C 7.67216 58.80053 -0.62690
4
Frame 82
C 6.57231 0.81415 58.16576
C 6.60477 1.04989 59.56954
C 7.78653 0.18082 59.75849
C 7.57767 58.78595 -0.60699
4
Frame 83
C 6.65204 0.83560 58.22697
C 6.63831 0.96480 59.59691
C 7.72759 0.36834 59.88734
C 7.52334 58.66207 -0.82442
4
Frame 84
C 6.64158 0.78072 58.14752
C 6.56654 1.01119 59.56833
C 7.85127 0.31467 60.01195
C 7.48189 58.72423 -0.84101
4
Frame 85
C 6.49076 0.82981 58.21341
C 6.66633 1.06661 59.55030
C 7.70786 0.20629 59.73256
C 7.67633 58.72810 -0.60947
4
Frame 86
C 6.48206 0.76690 58.17784
C 6.65347 1.16715 59.60230
C 7.70999 0.11056 59.69367
C 7.69576 58.78620 -0.58701
4
Frame 87
C 6.54419 0.72948 58.20129
C 6.66353 1.13738 59.56652
C 7.71861 0.14520 59.83428
C 7.61495 58.81874 -0.71529
4
Frame 88
C 6.56380 0.74459 58.17075
C 6.67147 1.10339 59.62000
C 7.69748 0.18805 59.77648
C 7.60853 58.79478 -0.68043
4
Frame 89
C 6.54197 0.80886 58.14046
C 6.61546 1.10365 59.63062
C 7.75705 0.15684 59.67597
C 7.62680 58.76147 -0.56025
4
Frame 90
C 6.58490 0.82609 58.27154
C 6.53084 1.11482 59.50114
C 7.85362 0.16604 59.80032
C 7.57193 58.72386 -0.68620
4
Frame 91
C 6.61783 0.71534 58.07731
C 6.68228 1.08293 59.74715
C 7.66831 0.28128 59.77388
C 7.57286 58.75126 -0.71154
4
Frame 92
C 6.52757 0.77686 58.12330
C 6.62977 1.15063 59.65072
C 7.73504 0.11968 59.67368
C 7.64890 58.78364 -0.56089
4
Frame 93
C 6.54570 0.77305 58.23892
C 6.62508 1.13916 59.53070
C 7.75099 0.12148 59.80243
C 7.61951 58.79712 -0.68526
4
Frame 94
C 6.55477 0.74114 58.17194
C 6.67893 1.11799 59.62423
C 7.68912 0.16794 59.75577
C 7.61846 58.80374 -0.66514
4
Frame 95
C 6.54424 0.74506 58.10535
C 6.67074 1.12046 59.65689
C 7.72448 0.14968 59.74579
C 7.60182 58.81561 -0.62123
4
Frame 96
C 6.57363 0.80525 58.28126
C 6.56640 1.14855 59.52871
C 7.78983 0.14042 59.79593
C 7.61142 58.73658 -0.71910
4
Frame 97
C 6.60548 0.77589 58.13015
C 6.63138 1.08979 59.67094
C 7.72813 0.18674 59.70929
C 7.57629 58.77838 -0.62358
4
Frame 98
C 6.58934 0.72217 57.90256
C 6.67972 1.11191 59.88436
C 7.70138 0.20395 59.76215
C 7.57083 58.79278 -0.66226
4
Frame 99
C 6.58103 0.73204 58.03165
C 6.68167 1.10693 59.75571
C 7.68757 0.16838 59.74180
C 7.59102 58.82346 -0.64236
4
Frame 100
C 6.54384 0.80347 58.24263
C 6.64606 1.10232 59.53025
C 7.70761 0.12494 59.75689
C 7.64377 58.80009 -0.64297
4
Frame 101
C 6.53778 0.78925 58.19468
C 6.62264 1.14638 59.58071
C 7.72746 0.09848 59.74772
C 7.65340 58.79670 -0.63630
4
Frame 102
C 6.55118 0.76576 58.11259
C 6.65660 1.12169 59.65378
C 7.71361 0.14252 59.80135
C 7.61989 58.80084 -0.68092
4
Frame 103
C 6.59736 0.76487 58.17074
C 6.66110 1.08107 59.62383
C 7.69553 0.19642 59.82980
C 7.58728 58.78845 -0.73758
4
Frame 104
C 6.59880 0.81687 58.28623
C 6.54146 1.14491 59.52795
C 7.77584 0.10645 59.71752
C 7.62517 58.76258 -0.64490
4
Frame 105
C 6.48815 0.85670 58.05328
C 6.57100 1.14417 59.62400
C 7.85789 0.03384 59.78491
C 7.62425 58.79609 -0.57539
4
Frame 106
C 6.57927 0.76953 58.17589
C 6.67173 1.09043 59.64763
C 7.68829 0.16470 59.79667
C 7.60199 58.80614 -0.73338
4
Frame 107
C 6.58733 0.75363 58.21112
C 6.64661 1.13353 59.64807
C 7.68848 0.14421 59.78597
C 7.61886 58.79944 -0.75836
4
Frame 108
C 6.50653 0.81226 58.14459
C 6.64756 1.11882 59.60017
C 7.75428 0.07501 59.75713
C 7.63291 58.82472 -0.61509
4
Frame 109
C 6.55011 0.81576 58.24744
C 6.62835 1.11574 59.58336
C 7.69854 0.13023 59.70226
C 7.66428 58.76908 -0.64626
4
Frame 110
C 6.57327 0.78772 58.15012
C 6.67157 1.04999 59.58193
C 7.74538 0.15676 59.87023
C 7.55106 58.83634 -0.71547
4
Frame 111
C 6.61341 0.75165 58.10133
C 6.66265 1.11756 59.83025
C 7.64109 0.21870 59.72581
C 7.62414 58.74290 -0.77060
4
Frame 112
C 6.51827 0.83846 58.13342
C 6.65269 1.11155 59.71195
C 7.70849 0.12738 59.70801
C 7.66183 58.75343 -0.66657
4
Frame 113
C 6.48859 0.86689 58.22335
C 6.61473 1.12648 59.54033
C 7.78802 0.05224 59.79914
C 7.64994 58.78520 -0.67603
4
Frame 114
C 6.56867 0.77912 58.21337
C 6.64369 1.13072 59.62849
C 7.70250 0.10577 59.71443
C 7.62642 58.81520 -0.66948
4
Frame 115
C 6.54090 0.78581 58.11862
C 6.71032 1.06171 59.63772
C 7.70825 0.12963 59.79074
C 7.58181 58.85366 -0.66028
4
Frame 116
C 6.60544 0.77959 58.26228
C 6.60503 1.14857 59.64004
C 7.70749 0.13334 59.74679
C 7.62331 58.76931 -0.76230
4
Frame 117
C 6.52335 0.86191 58.21473
C 6.61430 1.09674 59.54183
C 7.80161 0.04406 59.71180
C 7.60203 58.82809 -0.58156
4
Frame 118
C 6.47711 0.87684 58.09937
C 6.62603 1.12064 59.66832
C 7.79586 0.06741 59.78161
C 7.64228 58.76592 -0.66250
4
Frame 119
C 6.57520 0.76724 58.14381
C 6.66766 1.11355 59.68585
C 7.72080 0.13305 59.84910
C 7.57762 58.81697 -0.79196
4
Frame 120
C 6.56899 0.77528 58.19108
C 6.68088 1.08577 59.59609
C 7.71996 0.10383 59.77505
C 7.57144 58.86593 -0.67542
4
Frame 121
C 6.51121 0.84112 58.21882
C 6.64472 1.12957 59.64305
C 7.68942 0.11246 59.68057
C 7.69592 58.74766 -0.65565
4
Frame 122
C 6.51709 0.83777 58.18563
C 6.65498 1.08867 59.57695
C 7.76327 0.08209 59.78209
C 7.60594 58.82228 -0.65786
4
Frame 123
C 6.62133 0.75325 58.19881
C 6.64991 1.10668 59.66595
C 7.71284 0.13792 59.76825
C 7.55720 58.83296 -0.74621
4
Frame 124
C 6.50661 0.84793 58.11481
C 6.70197 1.07981 59.75189
C 7.65857 0.17872 59.73461
C 7.67413 58.72435 -0.71451
4
Frame 125
C 6.50287 0.87358 58.25531
C 6.56659 1.17521 59.55333
C 7.80247 0.01456 59.72164
C 7.66934 58.76746 -0.64348
4
Frame 126
C 6.61493 0.75089 58.25712
C 6.52605 1.23203 59.56833
C 7.81826 -0.01202 59.72067
C 7.58204 58.85991 -0.65932
4
Frame 127
C 6.51493 0.81848 58.15214
C 6.68448 1.08369 59.60500
C 7.72180 0.09640 59.75316
C 7.62007 58.83224 -0.62351
4
Frame 128
C 6.55253 0.80800 58.20861
C 6.66090 1.10684 59.65036
C 7.67140 0.15677 59.75199
C 7.65645 58.75920 -0.72416
4
Frame 129
C 6.57766 0.78430 58.17342
C 6.60958 1.12796 59.58764
C 7.78643 0.06109 59.77057
C 7.56761 58.85745 -0.64482
4
Frame 130
C 6.53423 0.83863 58.20613
C 6.63623 1.10347 59.59310
C 7.70981 0.10723 59.67198
C 7.66101 58.78148 -0.58440
4
Frame 131
C 6.46526 0.88763 58.18426
C 6.66697 1.09322 59.60576
C 7.67649 0.17425 59.84637
C 7.73255 58.67570 -0.74959
4
Frame 132
C 6.58771 0.73170 58.12459
C 6.64359 1.15194 59.63581
C 7.72123 0.11284 59.85940
C 7.58875 58.83434 -0.73300
4
Frame 133
C 6.60981 0.71128 58.12437
C 6.63988 1.16600 59.67518
C 7.68733 0.10881 59.70779
C 7.60426 58.84472 -0.62055
4
Frame 134
C 6.49975 0.84632 58.16965
C 6.67486 1.07486 59.54149
C 7.69353 0.15107 59.81892
C 7.67314 58.75856 -0.64325
4
Frame 135
C 6.58001 0.78606 58.18977
C 6.60334 1.14151 59.58014
C 7.71297 0.12980 59.76854
C 7.64496 58.77343 -0.65165
4
Frame 136
C 6.59452 0.74190 58.07541
C 6.62738 1.13150 59.63806
C 7.73290 0.11248 59.77155
C 7.58647 58.84493 -0.59821
4
Frame 137
C 6.55098 0.80354 58.18543
C 6.69481 1.06009 59.56610
C 7.63524 0.21413 59.84167
C 7.66024 58.75306 -0.70640
4
Frame 138
C 6.57320 0.76891 58.22025
C 6.56678 1.19728 59.50456
C 7.74755 0.09536 59.89333
C 7.65374 58.76926 -0.73134
4
Frame 139
C 6.55176 0.73388 58.07178
C 6.55300 1.24991 59.59645
C 7.76351 0.03690 59.74104
C 7.67301 58.81013 -0.52247
4
Frame 140
C 6.57447 0.75876 58.17215
C 6.66680 1.09730 59.53858
C 7.62945 0.20074 59.78227
C 7.67056 58.77401 -0.60621
4
Frame 141
C 6.60665 0.73995 58.15191
C 6.61745 1.12520 59.53498
C 7.68845 0.18475 59.86582
C 7.62873 58.78091 -0.66590
4
Frame 142
C 6.59128 0.75031 58.10342
C 6.58788 1.16629 59.60518
C 7.68975 0.16283 59.77484
C 7.67238 58.75139 -0.59664
4
Frame 143
C 6.55083 0.79174 58.13525
C 6.62521 1.12009 59.53993
C 7.67136 0.17436 59.78695
C 7.69388 58.74463 -0.57533
4
Frame 144
C 6.61222 0.72685 58.20572
C 6.63180 1.11919 59.46614
C 7.67260 0.19333 59.93380
C 7.62465 58.79144 -0.71886
4
Frame 145
C 6.62460 0.62861 58.03048
C 6.67800 1.18986 59.77086
C 7.55385 0.24898 59.75992
C 7.68483 58.76337 -0.67447
4
Frame 146
C 6.54576 0.70385 58.00843
C 6.67003 1.15508 59.65047
C 7.65462 0.15952 59.75871
C 7.67087 58.81235 -0.53080
4
Frame 147
C 6.61107 0.73843 58.21948
C 6.59043 1.14927 59.47208
C 7.70358 0.16300 59.86356
C 7.63620 58.78010 -0.66833
4
Frame 148
C 6.61185 0.73933 58.14847
C 6.60014 1.15039 59.57827
C 7.66666 0.18853 59.77111
C 7.66263 58.75256 -0.61105
4
Frame 149
C 6.57511 0.74728 58.04062
C 6.62543 1.13033 59.60745
C 7.69954 0.17307 59.81784
C 7.64120 58.78013 -0.57912
4
Frame 150
C 6.62265 0.72875 58.21248
C 6.58827 1.16253 59.52236
C 7.68087 0.18364 59.85160
C 7.64948 58.75590 -0.69964
4
Frame 151
C 6.55590 0.75543 58.20712
C 6.63759 1.14487 59.51189
C 7.65189 0.16870 59.79377
C 7.69591 58.76180 -0.62598
4
Frame 152
C 6.48091 0.74413 57.99456
C 6.61596 1.23186 59.64938
C 7.73624 0.08212 59.81351
C 7.70817 58.77271 -0.57065
4
Frame 153
C 6.60107 0.71523 58.15297
C 6.63809 1.15062 59.57438
C 7.67877 0.17230 59.81121
C 7.62335 58.79266 -0.65175
4
Frame 154
C 6.59788 0.76293 58.20822
C 6.64476 1.10217 59.52820
C 7.66645 0.21562 59.83394
C 7.63218 58.75009 -0.68356
4
Frame 155
C 6.57518 0.75058 58.07450
C 6.61627 1.14412 59.60021
C 7.72960 0.13987 59.78093
C 7.62023 58.79624 -0.56884
4
Frame 156
C 6.59199 0.74321 58.15890
C 6.60212 1.16777 59.58091
C 7.69587 0.15956 59.79287
C 7.65131 58.76027 -0.64588
4
Frame 157
C 6.55030 0.76121 58.18420
C 6.68549 1.09081 59.49675
C 7.66760 0.20445 59.93641
C 7.63789 58.77434 -0.73055
4
Frame 158
C 6.57563 0.65127 57.99097
C 6.72348 1.14301 59.68187
C 7.66596 0.15652 59.81583
C 7.57621 58.88002 -0.60188
4
Frame 159
C 6.57182 0.65867 57.97230
C 6.64180 1.25414 59.79369
C 7.68046 0.13296 59.73113
C 7.64721 58.78504 -0.61032
4
Frame 160
C 6.57281 0.75809 58.16785
C 6.66764 1.10232 59.53590
C 7.67803 0.21137 59.83611
C 7.62279 58.75903 -0.65306
4
Frame 161
C 6.60787 0.75606 58.22675
C 6.58799 1.15192 59.49263
C 7.72733 0.17049 59.82128
C 7.61809 58.75234 -0.65385
4
Frame 162
C 6.56859 0.73704 58.06844
C 6.63136 1.15683 59.61705
C 7.70297 0.16014 59.75693
C 7.63835 58.77681 -0.55562
4
Frame 163
C 6.59638 0.71706 58.14981
C 6.65326 1.14437 59.58336
C 7.65069 0.20728 59.81391
C 7.64095 58.76209 -0.66029
4
Frame 164
C 6.60816 0.71255 58.22305
C 6.61763 1.16139 59.46806
C 7.70640 0.16885 59.92744
C 7.60909 58.78803 -0.73175
4
Frame 165
C 6.55280 0.70999 58.06441
C 6.66739 1.16585 59.63321
C 7.64786 0.16472 59.68515
C 7.67323 58.79025 -0.49597
4
Frame 166
C 6.59320 0.69677 58.08083
C 6.66503 1.15130 59.66696
C 7.60456 0.28650 59.82318
C 7.67849 58.69625 -0.68417
4
Frame 167
C 6.61370 0.71716 58.16066
C 6.56688 1.16889 59.48282
C 7.75422 0.18366 59.90288
C 7.60648 58.76111 -0.65956
4
Frame 168
C 6.57268 0.75182 58.15995
C 6.60394 1.14707 59.50249
C 7.69340 0.17903 59.74471
C 7.67126 58.75289 -0.52036
4
Frame 169
C 6.56833 0.72894 58.12273
C 6.63536 1.15139 59.55857
C 7.64974 0.21645 59.78205
C 7.68785 58.73403 -0.57655
4
Frame 170
C 6.60734 0.67278 58.10832
C 6.61046 1.18107 59.52611
C 7.70992 0.18715 59.92369
C 7.61356 58.78981 -0.67133
4
Frame 171
C 6.58697 0.71901 58.18065
C 6.61523 1.17086 59.52361
C 7.65121 0.20147 59.77505
C 7.68786 58.73947 -0.59251
4
Frame 172
C 6.42613 0.87156 58.11171
C 6.64881 1.12094 59.54769
C 7.63507 0.21155 59.66710
C 7.83128 58.62676 -0.43969
4
Frame 173
C 6.45792 0.86415 58.14028
C 6.60887 1.09296 59.42735
C 7.71960 0.22767 59.86682
C 7.75489 58.64602 -0.54765
4
Frame 174
C 6.65379 0.65081 58.09206
C 6.57865 1.17061 59.58361
C 7.70856 0.20816 59.79256
C 7.60028 58.80122 -0.58143
4
Frame 175
C 6.61164 0.67506 58.10330
C 6.62410 1.14738 59.58389
C 7.65077 0.24095 59.79116
C 7.65477 58.76742 -0.59156
4
Frame 176
C 6.52911 0.74858 58.14160
C 6.60761 1.14463 59.46716
C 7.69937 0.19709 59.86226
C 7.70519 58.74051 -0.58422
4
Frame 177
C 6.58750 0.68919 58.14512
C 6.55135 1.22199 59.51612
C 7.70665 0.15561 59.76808
C 7.69578 58.76403 -0.54252
4
Frame 178
C 6.64202 0.62072 58.03947
C 6.64239 1.14912 59.61456
C 7.64325 0.24842 59.79202
C 7.61362 58.81255 -0.55925
4
Frame 179
C 6.61576 0.68887 58.06565
C 6.60433 1.12272 59.53420
C 7.70409 0.30538 60.00212
C 7.61710 58.71384 -0.71517
4
Frame 180
C 6.65208 0.68635 58.12614
C 6.53905 1.18037 59.55432
C 7.69201 0.26418 59.84276
C 7.65814 58.69991 -0.63642
4
Frame 181
C 6.61643 0.66625 58.01974
C 6.60900 1.15393 59.60886
C 7.65269 0.23260 59.75257
C 7.66316 58.77804 -0.49438
4
Frame 182
C 6.60642 0.68652 58.13836
C 6.61811 1.12992 59.47139
C 7.65199 0.24674 59.88778
C 7.66477 58.76762 -0.61073
4
Frame 183
C 6.61220 0.66963 58.14731
C 6.56796 1.20324 59.50244
C 7.66097 0.21379 59.84746
C 7.70016 58.74414 -0.61041
4
Frame 184
C 6.55646 0.69001 58.01204
C 6.60329 1.17139 59.54688
C 7.69092 0.19519 59.82201
C 7.69061 58.77421 -0.49414
4
Frame 185
C 6.62432 0.71314 58.16747
C 6.62700 1.07631 59.44833
C 7.64423 0.29964 59.86922
C 7.64572 58.74171 -0.59821
4
Frame 186
C 6.69615 0.66774 58.14205
C 6.47783 1.21842 59.56521
C 7.69310 0.29492 59.89881
C 7.67420 58.64973 -0.71928
4
Frame 187
C 6.57752 0.71644 57.99681
C 6.60625 1.10655 59.51926
C 7.69467 0.24743 59.87392
C 7.66285 58.76038 -0.50319
4
Frame 188
C 6.56969 0.71953 58.08969
C 6.58957 1.13664 59.44473
C 7.68094 0.21803 59.86108
C 7.70108 58.75661 -0.50870
4
Frame 189
C 6.62857 0.65506 58.13519
C 6.52578 1.23559 59.48926
C 7.66446 0.20764 59.84601
C 7.72247 58.73252 -0.58366
4
Frame 190
C 6.60624 0.65603 58.05968
C 6.61675 1.14529 59.49974
C 7.63886 0.24235 59.85334
C 7.67942 58.78714 -0.52596
4
Frame 191
C 6.61604 0.69418 58.12427
C 6.60312 1.12553 59.49063
C 7.60961 0.28850 59.81596
C 7.71250 58.72259 -0.54406
4
Frame 192
C 6.62439 0.69635 58.04973
C 6.44679 1.21385 59.43977
C 7.82495 0.15362 59.90698
C 7.64515 58.76699 -0.50968
4
Frame 193
C 6.65297 0.69479 58.13141
C 6.41619 1.24661 59.44441
C 7.76126 0.16520 59.77426
C 7.71086 58.72421 -0.46328
4
Frame 194
C 6.60820 0.70610 58.13298
C 6.56327 1.16199 59.48415
C 7.59005 0.31099 59.83191
C 7.77976 58.65172 -0.56224
4
Frame 195
C 6.62556 0.62378 58.01621
C 6.60537 1.15251 59.48075
C 7.65347 0.24662 59.91858
C 7.65688 58.80790 -0.52874
4
Frame 196
C 6.65588 0.63074 58.13618
C 6.54489 1.21076 59.47139
C 7.62997 0.23213 59.81345
C 7.71054 58.75717 -0.53422
4
Frame 197
C 6.53635 0.75174 58.09961
C 6.61353 1.10001 59.40161
C 7.63890 0.25736 59.85693
C 7.75249 58.72170 -0.47135
4
Frame 198
C 6.64861 0.67927 58.12234
C 6.50949 1.19207 59.48594
C 7.65574 0.25266 59.79298
C 7.72744 58.70681 -0.51446
4
Frame 199
C 6.67157 0.63125 57.99575
C 6.53065 1.16060 59.50296
C 7.71810 0.27168 59.97373
C 7.62097 58.76728 -0.58564
4
Frame 200
C 6.56829 0.71529 58.00601
C 6.63044 1.10231 59.51202
C 7.60836 0.33252 59.92808
C 7.73420 58.68069 -0.55931
4
Frame 201
C 6.60496 0.68855 58.12734
C 6.52726 1.22916 59.47670
C 7.65029 0.20314 59.77264
C 7.75877 58.70996 -0.48988
4
Frame 202
C 6.61624 0.66389 58.10710
C 6.53952 1.20484 59.41015
C 7.72736 0.14560 59.86227
C 7.65816 58.81648 -0.49272
4
Frame 203
C 6.63077 0.67209 58.13885
C 6.59588 1.16256 59.49730
C 7.59487 0.27346 59.81269
C 7.71976 58.72270 -0.56204
4
Frame 204
C 6.61292 0.67037 58.01276
C 6.61677 1.12034 59.50645
C 7.65986 0.25903 59.88717
C 7.65173 58.78107 -0.51957
4
Frame 205
C 6.68822 0.65914 58.15821
C 6.45533 1.25148 59.48297
C 7.71281 0.19942 59.80101
C 7.68492 58.72076 -0.55539
4
Frame 206
C 6.54988 0.79253 58.17782
C 6.52673 1.17675 59.42131
C 7.68819 0.21085 59.79701
C 7.77648 58.65068 -0.50933
4
Frame 207
C 6.53318 0.73032 58.01469
C 6.61463 1.17116 59.56480
C 7.65316 0.22851 59.86174
C 7.74032 58.70082 -0.55443
4
Frame 208
C 6.66099 0.63542 58.13914
C 6.59876 1.18496 59.51705
C 7.63661 0.22918 59.86324
C 7.64492 58.78125 -0.63263
4
Frame 209
C 6.56950 0.72383 58.10723
C 6.63763 1.11415 59.45141
C 7.65833 0.22113 59.87300
C 7.67582 58.77170 -0.54485
4
Frame 210
C 6.60647 0.71577 58.13777
C 6.54475 1.21247 59.53560
C 7.64929 0.20947 59.74456
C 7.74077 58.69310 -0.53113
4
Frame 211
C 6.62105 0.70291 58.10074
C 6.59864 1.12025 59.46019
C 7.70458 0.21648 59.87793
C 7.61701 58.79117 -0.55206
4
Frame 212
C 6.60465 0.70481 58.06093
C 6.63996 1.12108 59.56915
C 7.63011 0.29364 59.90520
C 7.66657 58.71128 -0.64848
4
Frame 213
C 6.60811 0.67909 58.08218
C 6.50149 1.27679 59.53678
C 7.76447 0.10317 59.82228
C 7.66721 58.77176 -0.55444
4
Frame 214
C 6.59489 0.71314 58.18012
C 6.51287 1.23484 59.41759
C 7.77607 0.07155 59.79494
C 7.65745 58.81128 -0.50585
4
Frame 215
C 6.59034 0.72489 58.18106
C 6.60577 1.15806 59.49864
C 7.63596 0.21850 59.79416
C 7.70921 58.72936 -0.58706
4
Frame 216
C 6.59665 0.68556 58.03032
C 6.64423 1.12719 59.57230
C 7.66901 0.22485 59.85910
C 7.63139 58.79321 -0.57491
4
Frame 217
C 6.64250 0.68896 58.14373
C 6.55733 1.19288 59.54818
C 7.68904 0.19900 59.79903
C 7.65240 58.74996 -0.60414
4
Frame 218
C 6.50771 0.83174 58.18097
C 6.60606 1.11703 59.44404
C 7.69248 0.18454 59.77739
C 7.73503 58.69749 -0.51561
4
Frame 219
C 6.49884 0.77461 58.02990
C 6.63121 1.16364 59.59867
C 7.69233 0.16847 59.80422
C 7.71890 58.72408 -0.54599
4
Frame 220
C 6.60801 0.67259 58.10542
C 6.63950 1.17544 59.59642
C 7.65327 0.21128 59.90133
C 7.64050 58.77150 -0.71637
4
Frame 221
C 6.55952 0.75044 58.17232
C 6.67919 1.08450 59.47488
C 7.64600 0.21770 59.86837
C 7.65657 58.77817 -0.62877
4
Frame 222
C 6.59216 0.73059 58.14674
C 6.57456 1.19972 59.57975
C 7.68098 0.15841 59.71503
C 7.69358 58.74210 -0.55472
4
Frame 223
C 6.56634 0.76199 58.11628
C 6.62902 1.10455 59.49637
C 7.72910 0.17948 59.86978
C 7.61682 58.78479 -0.59562
4
Frame 224
C 6.61953 0.72787 58.17603
C 6.64947 1.11377 59.57828
C 7.62915 0.26418 59.83280
C 7.64313 58.72499 -0.70031
4
Frame 225
C 6.61772 0.66114 58.03701
C 6.59384 1.21371 59.65156
C 7.72166 0.12484 59.76070
C 7.60806 58.83113 -0.56247
4
Frame 226
C 6.54194 0.72794 58.10310
C 6.61008 1.17532 59.51785
C 7.75078 0.10501 59.90679
C 7.63848 58.82254 -0.64095
4
Frame 227
C 6.55979 0.73740 58.17896
C 6.67334 1.11486 59.56467
C 7.62470 0.22256 59.86875
C 7.68344 58.75599 -0.72558
4
Frame 228
C 6.60840 0.67735 58.05911
C 6.65917 1.13543 59.65609
C 7.67352 0.17267 59.75986
C 7.60019 58.84537 -0.58826
4
Frame 229
C 6.58931 0.74756 58.15808
C 6.60310 1.14230 59.56508
C 7.71450 0.16032 59.77169
C 7.63437 58.78063 -0.60805
4
Frame 230
C 6.51853 0.82689 58.17177
C 6.60678 1.12012 59.51896
C 7.73015 0.16827 59.82656
C 7.68582 58.71553 -0.63050
4
Frame 231
C 6.58413 0.72424 58.10828
C 6.62310 1.16393 59.64538
C 7.68763 0.16140 59.74983
C 7.64642 58.78123 -0.61670
4
Frame 232
C 6.63796 0.64562 58.13288
C 6.62512 1.20055 59.67351
C 7.65921 0.16372 59.78258
C 7.61899 58.82092 -0.70217
4
Frame 233
C 6.40517 0.86089 58.16972
C 6.69123 1.07333 59.45853
C 7.68197 0.16083 59.88483
C 7.76292 58.73576 -0.62627
4
Frame 234
C 6.51622 0.78576 58.19790
C 6.61387 1.14643 59.52149
C 7.68641 0.13008 59.70722
C 7.72478 58.76855 -0.53981
4
Frame 235
C 6.61799 0.69702 58.12143
C 6.59711 1.16237 59.61438
C 7.71091 0.16433 59.78822
C 7.61526 58.80709 -0.63724
4
Frame 236
C 6.56807 0.76477 58.12311
C 6.65533 1.08171 59.58079
C 7.68114 0.23339 59.86544
C 7.63673 58.75094 -0.68255
4
Frame 237
C 6.55276 0.78899 58.18362
C 6.59649 1.13089 59.52727
C 7.71927 0.15418 59.75951
C 7.67277 58.75674 -0.58360
4
Frame 238
C 6.59323 0.71488 58.17765
C 6.51817 1.22753 59.50399
C 7.82667 0.02025 59.77024
C 7.60321 58.86816 -0.56508
4
Frame 239
C 6.56431 0.72958 58.27913
C 6.60159 1.17999 59.53974
C 7.67615 0.15187 59.82238
C 7.69923 58.76937 -0.75445
4
Frame 240
C 6.45834 0.75558 58.05988
C 6.72659 1.08528 59.63698
C 7.67597 0.17509 59.81707
C 7.68038 58.81486 -0.62713
4
Frame 241
C 6.59562 0.70525 58.17165
C 6.57676 1.18302 59.60084
C 7.77349 0.09792 59.74271
C 7.59540 58.84462 -0.62839
4
Frame 242
C 6.54343 0.80816 58.24850
C 6.59970 1.11555 59.52895
C 7.75304 0.14919 59.76953
C 7.64511 58.75791 -0.66018
4
Frame 243
C 6.49875 0.81408 58.11592
C 6.67682 1.07595 59.64053
C 7.71226 0.17769 59.74942
C 7.65344 58.76309 -0.61907
4
Frame 244
C 6.59792 0.70094 58.14441
C 6.63312 1.15362 59.67529
C 7.72763 0.13734 59.76341
C 7.58261 58.83891 -0.69631
4
Frame 245
C 6.48615 0.78898 58.23152
C 6.69743 1.07199 59.49846
C 7.73175 0.13756 59.89684
C 7.62596 58.83227 -0.74002
4
Frame 246
C 6.39968 0.83544 58.20857
C 6.70410 1.13057 59.66543
C 7.65391 0.14454 59.65667
C 7.78359 58.72027 -0.64387
4
Frame 247
C 6.51094 0.77412 58.22537
C 6.67730 1.10434 59.59768
C 7.74575 0.12402 59.76524
C 7.60728 58.82833 -0.70149
4
Frame 248
C 6.57210 0.75399 58.22194
C 6.66360 1.09786 59.64444
C 7.74191 0.17496 59.82813
C 7.56366 58.80400 -0.80770
4
Frame 249
C 6.51062 0.80502 58.15338
C 6.67800 1.07651 59.66338
C 7.75252 0.14069 59.72253
C 7.60014 58.80859 -0.65249
4
Frame 250
C 6.51817 0.81054 58.23701
C 6.60919 1.13028 59.59382
C 7.79336 0.07658 59.67991
C 7.62056 58.81340 -0.62394
4
Frame 251
C 6.55282 0.75151 58.27988
C 6.61062 1.16637 59.59714
C 7.77261 0.10803 59.81937
C 7.60523 58.80490 -0.80959
4
Frame 252
C 6.48479 0.70414 58.07919
C 6.76606 1.09724 59.71418
C 7.69734 0.15524 59.81785
C 7.59309 58.87419 -0.72442
4
Frame 253
C 6.49718 0.74050 58.17884
C 6.66059 1.16083 59.63146
C 7.75926 0.06165 59.65914
C 7.62425 58.86783 -0.58264
4
Frame 254
C 6.53296 0.79471 58.29379
C 6.62870 1.11869 59.55668
C 7.76925 0.13419 59.81581
C 7.61037 58.78321 -0.77948
4
Frame 255
C 6.54135 0.77038 58.14106
C 6.69810 1.06262 59.68112
C 7.73121 0.17254 59.75134
C 7.57062 58.82528 -0.68673
4
Frame 256
C 6.55286 0.75473 58.12198
C 6.66205 1.10972 59.73385
C 7.74185 0.13791 59.67503
C 7.58451 58.82844 -0.64406
4
Frame 257
C 6.50042 0.82328 58.29962
C 6.65971 1.07979 59.51910
C 7.76770 0.12816 59.81669
C 7.61345 58.79958 -0.74861
4
Frame 258
C 6.48720 0.73605 58.15039
C 6.77333 1.08780 59.70695
C 7.66800 0.16020 59.73391
C 7.61274 58.84676 -0.70444
4
Frame 259
C 6.49863 0.68396 58.03410
C 6.70775 1.20972 59.83222
C 7.75792 0.05982 59.70845
C 7.57698 58.87730 -0.68797
4
Frame 260
C 6.49812 0.79118 58.20432
C 6.70899 1.09429 59.63974
C 7.75304 0.12918 59.75983
C 7.58113 58.81616 -0.71709
4
Frame 261
C 6.49638 0.85865 58.28751
C 6.68312 1.05588 59.57507
C 7.75341 0.16348 59.76028
C 7.60836 58.75280 -0.73605
4
Frame 262
C 6.53579 0.77364 58.12869
C 6.67002 1.10635 59.72351
C 7.78559 0.10221 59.67113
C 7.54988 58.84861 -0.63653
4
Frame 263
C 6.53384 0.76928 58.20154
C 6.70261 1.08740 59.67559
C 7.74248 0.13671 59.74342
C 7.56235 58.83743 -0.73376
4
Frame 264
C 6.42124 0.85717 58.27815
C 6.72412 1.07154 59.55445
C 7.74773 0.12468 59.84638
C 7.64820 58.77742 -0.79218
4
Frame 265
C 6.48476 0.75400 58.20344
C 6.68235 1.18627 59.68274
C 7.75209 0.04297 59.62724
C 7.62208 58.84757 -0.62663
4
Frame 266
C 6.56192 0.71041 58.17351
C 6.67728 1.17881 59.73152
C 7.76980 0.08858 59.71249
C 7.53229 58.85301 -0.73073
4
Frame 267
C 6.44929 0.88348 58.21681
C 6.73309 1.03544 59.61016
C 7.76523 0.17792 59.82212
C 7.59366 58.73398 -0.76229
4
Frame 268
C 6.51174 0.83843 58.25089
C 6.66312 1.09594 59.61950
C 7.77990 0.11912 59.68335
C 7.58652 58.77732 -0.66694
4
Frame 269
C 6.53935 0.76480 58.19305
C 6.64064 1.15539 59.67145
C 7.81329 0.05797 59.67647
C 7.54800 58.85266 -0.65417
4
Frame 270
C 6.45895 0.81919 58.24856
C 6.75498 1.06129 59.61531
C 7.71758 0.15325 59.79932
C 7.60978 58.79708 -0.77640
4
Frame 271
C 6.47284 0.79983 58.26615
C 6.69891 1.13109 59.59931
C 7.76044 0.08341 59.76400
C 7.60909 58.81648 -0.74266
4
Frame 272
C 6.51253 0.76494 58.16909
C 6.56862 1.26214 59.66357
C 7.89813 -0.05193 59.66083
C 7.56200 58.85566 -0.60669
4
Frame 273
C 6.54578 0.83387 58.31212
C 6.64334 1.11981 59.56724
C 7.80270 0.09759 59.70035
C 7.54947 58.77955 -0.69290
4
Frame 274
C 6.48619 0.87302 58.20821
C 6.76174 1.03335 59.66786
C 7.71769 0.20050 59.74975
C 7.57565 58.72393 -0.73901
4
Frame 275
C 6.54646 0.78000 58.21067
C 6.64141 1.16989 59.65904
C 7.83175 0.04029 59.68803
C 7.52166 58.84063 -0.67094
4
Frame 276
C 6.49378 0.82188 58.29051
C 6.66158 1.15385 59.58573
C 7.79745 0.03925 59.67999
C 7.58848 58.81584 -0.66943
4
Frame 277
C 6.40309 0.86966 58.23739
C 6.78983 1.06185 59.64300
C 7.69187 0.14706 59.72774
C 7.65650 58.75224 -0.72133
4
Frame 278
C 6.55971 0.74032 58.21700
C 6.67816 1.16662 59.68070
C 7.80172 0.04256 59.67128
C 7.50170 58.88130 -0.68219
4
Frame 279
C 6.48314 0.88730 58.27482
C 6.60563 1.16518 59.57939
C 7.89156 -0.00459 59.67054
C 7.56095 58.78292 -0.63795
4
Frame 280
C 6.47551 0.89459 58.19580
C 6.72203 1.08641 59.72293
C 7.74014 0.14908 59.65731
C 7.60360 58.70073 -0.68925
4
Frame 281
C 6.55443 0.77736 58.17188
C 6.73717 1.09653 59.72379
C 7.75235 0.12941 59.71252
C 7.49733 58.82751 -0.72140
4
Frame 282
C 6.50507 0.80830 58.24473
C 6.69093 1.14138 59.61953
C 7.80601 0.04700 59.73169
C 7.53928 58.83413 -0.70915
4
Frame 283
C 6.40776 0.88777 58.27889
C 6.72290 1.13629 59.63430
C 7.72936 0.07527 59.64756
C 7.68125 58.73148 -0.67395
4
Frame 284
C 6.45740 0.84054 58.23583
C 6.75486 1.09199 59.64999
C 7.73659 0.10510 59.69438
C 7.59243 58.79318 -0.69340
4
Frame 285
C 6.59384 0.79845 58.30942
C 6.65143 1.13864 59.64629
C 7.81310 0.11786 59.80586
C 7.48290 58.77585 -0.87477
4
Frame 286
C 6.44876 0.96477 58.23937
C 6.75524 1.00462 59.63544
C 7.77105 0.12454 59.69329
C 7.56622 58.73687 -0.68130
4
Frame 287
C 6.51062 0.87272 58.23987
C 6.68416 1.12385 59.71400
C 7.78797 0.04603 59.61144
C 7.55852 58.78821 -0.67851
4
Frame 288
C 6.50691 0.83562 58.28113
C 6.72006 1.10891 59.63293
C 7.80463 0.03959 59.77912
C 7.50968 58.84669 -0.80638
4
Frame 289
C 6.46999 0.83228 58.25197
C 6.81196 1.06562 59.70561
C 7.70268 0.10625 59.72179
C 7.55665 58.82666 -0.79257
4
Frame 290
C 6.48270 0.81849 58.19620
C 6.74638 1.14257 59.77831
C 7.76879 0.02057 59.58473
C 7.54341 58.84919 -0.67244
4
Frame 291
C 6.49444 0.90722 58.29927
C 6.69144 1.08521 59.61059
C 7.89765 0.01635 59.76481
C 7.45775 58.82204 -0.78786
4
Frame 292
C 6.52045 0.92945 58.29941
C 6.74997 1.03821 59.73810
C 7.75928 0.14098 59.67761
C 7.51157 58.72216 -0.82832
4
Frame 293
C 6.51187 0.85261 58.13222
C 6.77053 1.06077 59.81875
C 7.80326 0.02822 59.61235
C 7.45561 58.88921 -0.67652
4
Frame 294
C 6.52417 0.84110 58.30618
C 6.76019 1.08635 59.72306
C 7.76740 0.03435 59.67545
C 7.48952 58.86902 -0.81789
4
Frame 295
C 6.39758 0.94348 58.32565
C 6.80088 1.04659 59.64594
C 7.77514 0.01586 59.71191
C 7.56768 58.82488 -0.79671
4
Frame 296
C 6.48280 0.86520 58.28886
C 6.74266 1.13223 59.77261
C 7.77460 -0.00513 59.57191
C 7.54121 58.83851 -0.74658
4
Frame 297
C 6.55501 0.85716 58.30610
C 6.72530 1.08354 59.72057
C 7.83544 0.02685 59.69161
C 7.42554 58.86327 -0.83148
4
Frame 298
C 6.44827 1.01924 58.28093
C 6.81935 0.95596 59.73207
C 7.78515 0.12758 59.75164
C 7.48851 58.72804 -0.87784
4
Frame 299
C 6.50912 0.94159 58.33293
C 6.70402 1.08441 59.72589
C 7.82992 -0.02009 59.53016
C 7.49821 58.82490 -0.70218
4
Frame 300
C 6.50725 0.88485 58.34701
C 6.69302 1.12981 59.68343
C 7.88458 -0.09808 59.60842
C 7.45643 58.91423 -0.75207
