4

O      5.3265     -0.0377     11.3469
H      5.5628     -0.7517     11.9185
C      6.0940      1.1197     11.3726
N      6.8324      1.8823     11.8763
4

O      5.3631      0.0030     11.4381
H      5.1649     -0.7593     11.9083
C      6.0238      1.0457     11.3748
N      6.8819      1.8536     11.8390
4

O      5.4083      0.1456     11.2340
H      5.2342     -0.3202     12.0556
C      6.4529      0.9957     11.4873
N      7.3490      1.6871     11.6896
4

O      5.4491      0.0626     11.3580
H      5.0367     -0.0889     12.3945
C      6.4169      1.0104     11.5821
N      7.3668      1.5391     11.5843
4

O      5.3555      0.1179     11.4177
H      5.5115     -0.6684     11.9930
C      6.3372      1.0008     11.5008
N      7.3181      1.4722     11.5028
4

O      5.2683      0.2734     11.5316
H      5.8283     -0.1976     12.3791
C      6.3207      0.9751     11.4190
N      7.2879      1.4686     11.5465
4

O      5.3092      0.3216     11.4417
H      4.8835      0.1266     12.4918
C      6.3312      1.0152     11.4671
N      7.3381      1.4798     11.5471
4

O      5.1580      0.3799     11.5860
H      4.9806      0.1856     12.7204
C      6.2729      1.0761     11.4706
N      7.2951      1.5359     11.5678
4

O      5.1642      0.4301     11.6382
H      5.1712      0.3014     12.7177
C      6.2750      1.0773     11.5884
N      7.2979      1.5438     11.7087
4

O      5.1337      0.3372     11.4689
H      5.1391      0.5023     12.5769
C      6.3223      1.0943     11.6108
N      7.2379      1.6903     11.7938
4

O      5.1430      0.5203     11.4702
H      4.7181      0.2949     12.4020
C      6.3305      1.0784     11.4875
N      7.2562      1.8843     11.8064
4

O      5.1838      0.5358     11.5622
H      4.8344      0.6907     12.4453
C      6.3063      1.0873     11.5940
N      7.2764      1.7279     11.7485
4

O      5.1188      0.5413     11.7385
H      4.6855      1.1300     12.3210
C      6.4150      1.0964     11.6081
N      7.3700      1.6574     11.6868
4

O      5.2089      0.6927     11.7038
H      4.7011      1.0302     12.3855
C      6.3084      1.2383     11.6571
N      7.3953      1.7417     11.9330
4

O      5.2247      0.8104     11.6551
H      4.3195      1.1979     12.1185
C      6.2738      1.3817     11.6550
N      7.3658      1.7223     11.7503
4

O      5.0840      0.6567     11.5939
H      4.7508      1.0422     12.5898
C      6.2571      1.2003     11.5547
N      7.2547      1.7998     11.6910
4

O      5.0123      0.5229     11.5843
H      4.9577      0.7223     12.6756
C      6.2538      1.0737     11.4884
N      7.1478      1.8515     11.6165
4

O      5.1276      0.6078     11.6258
H      4.4329      0.9832     12.1291
C      6.2977      1.1527     11.5936
N      7.2769      1.7597     11.5643
4

O      5.1730      0.5195     11.5669
H      4.7753      1.4375     11.9867
C      6.2770      1.3228     11.7783
N      7.2261      1.8620     11.4223
4

O      5.2440      0.5206     11.5637
H      4.6226      1.2945     11.3650
C      6.2608      1.3977     11.8300
N      7.2168      1.9010     11.3289
4

O      5.2098      0.6084     11.5683
H      4.4922      1.0733     10.9464
C      6.2374      1.4280     11.8463
N      7.1748      1.8455     11.2995
4

O      5.0152      0.5512     11.6110
H      4.9179      1.3362     10.9156
C      6.2451      1.5050     11.7589
N      7.2437      1.7175     11.3186
4

O      5.0766      0.5538     11.5278
H      5.2775      0.8469     10.4722
C      6.2338      1.4314     11.8525
N      7.3909      1.7292     11.5205
4

O      5.2137      0.8042     11.6307
H      5.1344      0.1933     10.7649
C      6.2799      1.4134     11.8249
N      7.3701      1.6323     11.5766
4

O      5.1662      0.7484     11.5657
H      5.3206      0.0217     10.8492
C      6.3118      1.3041     11.8482
N      7.3954      1.6779     11.6015
4

O      5.1489      0.9277     11.5995
H      5.0536      0.0355     10.9399
C      6.3374      1.1703     11.8523
N      7.3712      1.6330     11.5879
4

O      5.1527      0.9121     11.4232
H      5.0419      0.2482     10.6664
C      6.4617      1.1941     11.8384
N      7.4435      1.7632     11.4775
4

O      5.2731      0.8491     11.2671
H      5.3832      0.5118     10.3999
C      6.5325      1.2348     11.5454
N      7.4372      1.8226     11.4089
4

O      5.3075      0.7365     11.1866
H      5.2750      0.4392     10.1750
C      6.4368      1.2430     11.2387
N      7.5272      1.6476     11.4874
4

O      5.1656      0.6047     11.0528
H      5.1801      0.4507     10.0844
C      6.3860      1.3143     11.2364
N      7.4887      1.5868     11.5387
4

O      5.2354      0.6813     11.1610
H      4.9575      0.6240     10.1745
C      6.2716      1.2419     11.1772
N      7.2931      1.4925     11.3074
4

O      5.0997      0.5972     11.0315
H      4.8465      0.6993     10.0887
C      6.1998      1.3630     11.3225
N      7.2844      1.5556     11.2385
4

O      5.0602      0.5565     10.9806
H      4.6225      0.8141     10.1400
C      6.1757      1.3179     11.4088
N      7.3229      1.5238     11.2740
4

O      4.9875      0.5880     11.0324
H      4.3882      0.8280     10.1504
C      6.1120      1.2423     11.2944
N      7.2675      1.3823     11.2588
4

O      5.0039      0.6585     11.0997
H      4.7201      0.9556     10.2764
C      6.0377      1.3907     11.1254
N      7.1863      1.2557     11.1693
4

O      5.0988      0.5590     11.0655
H      4.4586      0.7727     10.3390
C      6.0753      1.3782     11.0844
N      7.2520      1.2451     11.1103
4

O      5.0228      0.5343     11.1187
H      4.5432      0.4802     10.1915
C      6.0882      1.3593     11.1268
N      7.2666      1.2430     11.1337
4

O      5.1715      0.4352     11.1698
H      4.5807      0.8094     10.4349
C      6.1695      1.2486     11.1673
N      7.3518      1.4300     11.1318
4

O      5.2260      0.2533     11.1616
H      4.4801      0.2428     10.5984
C      6.1986      1.1490     11.1166
N      7.1814      1.6367     11.3277
4

O      5.2209      0.0428     11.2470
H      4.5020     -0.1131     10.6969
C      6.1059      1.0411     11.0061
N      7.0327      1.6915     11.4428
4

O      5.2620      0.1882     11.2828
H      4.8970      0.1614     10.2693
C      6.1618      1.0329     11.1762
N      7.0268      1.6165     11.3890
4

O      5.2688      0.2564     11.3353
H      4.8666      0.1936     10.3150
C      6.1833      1.0833     11.3411
N      7.1318      1.6704     11.3689
4

O      5.3280      0.1958     11.2040
H      4.7624      0.6456     10.3848
C      6.1003      1.2803     11.2847
N      7.2104      1.5408     11.4453
4

O      5.3535      0.0557     11.0526
H      4.5610      0.3307     10.5790
C      6.0721      1.3052     11.5289
N      7.2215      1.5823     11.4033
4

O      5.4665     -0.0920     10.9869
H      4.7974      0.4512     10.3019
C      6.1313      1.2048     11.4775
N      7.1491      1.6356     11.5374
4

O      5.5451      0.1260     11.0076
H      4.9490      0.1636     10.1178
C      6.2078      1.0312     11.4258
N      7.1799      1.5852     11.6058
4

O      5.4602      0.0906     11.1283
H      4.6176     -0.3892     10.7191
C      6.2368      1.0360     11.4478
N      7.2644      1.5491     11.5764
4

O      5.3479      0.1097     11.1673
H      4.4171     -0.3595     11.0771
C      6.2088      0.9609     11.4092
N      7.2398      1.4568     11.5371
4

O      5.4386     -0.0387     11.3199
H      4.4451      0.1775     11.4475
C      6.3017      0.8666     11.2792
N      7.1730      1.5997     11.5112
4

O      5.4547     -0.1334     11.5028
H      4.8611      0.6920     11.8641
C      6.4069      0.8382     11.1197
N      7.0913      1.7307     11.5230
4

O      5.5212     -0.1816     11.5745
H      4.6419      0.3083     12.2275
C      6.3824      0.7653     11.0776
N      7.0471      1.6774     11.3377
4

O      5.5176     -0.2344     11.5585
H      4.9132      0.4502     12.3781
C      6.4840      0.7389     11.0875
N      7.1089      1.6473     11.3566
4

O      5.6628     -0.1514     11.4917
H      5.8002      0.1876     12.4586
C      6.4689      0.6841     10.9261
N      7.0815      1.6751     11.3586
4

O      5.8274     -0.1123     11.5307
H      5.5123      0.1155     12.5376
C      6.4242      0.6970     10.9968
N      7.2001      1.6387     11.3073
4

O      5.7875     -0.1563     11.6473
H      5.6681     -0.0008     12.7230
C      6.4883      0.8317     10.9772
N      7.3269      1.6817     11.4357
4

O      5.7692     -0.1485     11.5714
H      5.7914     -0.0633     12.5774
C      6.4432      0.9985     10.9522
N      7.3827      1.6210     11.5853
4

O      5.6878     -0.0573     11.6070
H      5.9419      0.2578     12.5187
C      6.4633      1.1235     10.9628
N      7.4441      1.5124     11.5919
4

O      5.7810     -0.1364     11.7117
H      5.8673      0.0735     12.5730
C      6.5372      1.2462     10.9525
N      7.5677      1.3802     11.5694
4

O      5.8798     -0.0136     11.6051
H      5.9188      0.1210     12.5896
C      6.4134      1.0547     11.0938
N      7.5103      1.3472     11.6795
4

O      5.8169     -0.0337     11.5675
H      5.9382      0.0838     12.5953
C      6.4346      1.0980     11.1294
N      7.5330      1.4246     11.6691
4

O      5.7030     -0.0662     11.5336
H      5.9629      0.1224     12.5169
C      6.5190      1.0828     11.1803
N      7.5057      1.5649     11.5557
4

O      5.8658     -0.0588     11.3832
H      5.7413      0.1322     12.3950
C      6.5955      0.8494     11.0770
N      7.4727      1.4795     11.5248
4

O      5.8945     -0.0576     11.3357
H      5.7836      0.1087     12.3881
C      6.6501      0.8527     11.1596
N      7.6825      1.4608     11.4952
4

O      5.8045     -0.0106     11.2533
H      5.5819     -0.2643     12.1654
C      6.7091      0.9478     11.2564
N      7.7563      1.3836     11.5311
4

O      5.7694     -0.0101     11.1686
H      5.2691     -0.2971     12.1949
C      6.7739      0.8904     11.0568
N      7.7419      1.4643     11.4334
4

O      5.6251     -0.0299     11.0377
H      5.1846     -0.1877     12.0918
C      6.6426      0.7623     11.1986
N      7.6034      1.3428     11.4575
4

O      5.6124      0.0332     11.2075
H      5.6928     -0.7743     11.9283
C      6.7502      0.7470     11.3324
N      7.6528      1.4754     11.5459
4

O      5.5332     -0.0217     11.2650
H      5.9497     -0.8211     12.1645
C      6.8053      0.6875     11.3963
N      7.4862      1.6220     11.4360
4

O      5.4099     -0.0655     11.3944
H      5.3508     -0.8708     11.8053
C      6.6541      0.6700     11.2378
N      7.4579      1.5734     11.2058
4

O      5.3583     -0.1086     11.4626
H      5.1930     -1.0147     11.9076
C      6.4931      0.7580     11.3230
N      7.4232      1.4854     11.2359
4

O      5.3919     -0.0214     11.4267
H      5.5704     -1.1935     11.6366
C      6.4853      0.6703     11.2423
N      7.3041      1.4231     11.2961
4

O      5.3358     -0.0640     11.4781
H      6.1084     -0.8468     11.7647
C      6.2855      0.7494     11.2005
N      7.1966      1.4427     11.2724
4

O      5.3303     -0.0997     11.6422
H      5.8181     -0.8668     12.3117
C      6.1010      0.9343     11.3140
N      7.1684      1.4653     11.3851
4

O      5.3404     -0.0633     11.7259
H      5.7490     -0.4401     12.5579
C      6.0579      0.9343     11.3213
N      7.0543      1.4146     11.4454
4

O      5.2819     -0.1548     11.7091
H      5.6090     -0.3451     12.5108
C      6.0458      0.8602     11.4046
N      7.2617      1.4065     11.3393
4

O      5.2213     -0.1535     11.7013
H      5.5452     -0.1275     12.6812
C      6.2730      0.8625     11.3814
N      7.2756      1.3907     11.3069
4

O      5.2088      0.0614     11.6258
H      5.4102     -0.0324     12.8110
C      6.2711      0.7695     11.4159
N      7.1286      1.4589     11.0698
4

O      5.2032      0.3248     11.6495
H      4.7872     -0.5288     12.2873
C      6.3651      0.6665     11.3938
N      7.0270      1.5309     10.8679
4

O      5.1351      0.2895     11.6889
H      4.9975     -0.7431     12.0260
C      6.4729      0.7279     11.5445
N      7.0824      1.4847     10.9221
4

O      5.0596      0.2332     11.6534
H      5.0605     -0.6814     12.0302
C      6.4646      0.6712     11.6414
N      7.0978      1.4954     10.9130
4

O      5.1813      0.1040     11.5724
H      5.4212     -0.8619     12.0054
C      6.3610      0.7147     11.5638
N      7.1172      1.2818     11.0030
4

O      5.1853      0.1313     11.4094
H      5.1812     -0.7558     12.2512
C      6.3036      0.7132     11.4699
N      7.1542      1.2597     10.8419
4

O      5.0953      0.1488     11.3118
H      5.2402     -0.9913     11.5468
C      6.3357      0.7353     11.2799
N      7.1997      1.2858     10.8039
4

O      5.4581      0.5137     11.4222
H      4.5159      0.7844     10.9950
C      6.5524      0.9049     11.0733
N      7.6744      1.1323     11.1515
4

O      5.3770      0.4324     11.6104
H      5.0916      0.2430     10.6130
C      6.5546      0.7899     11.0947
N      7.6792      1.3257     11.2059
4

O      5.3002      0.3732     11.6045
H      5.0645     -0.2072     10.8211
C      6.5634      0.7304     11.2675
N      7.6227      1.3093     11.2657
4

O      5.2477      0.3851     11.4569
H      4.8347     -0.4028     10.8021
C      6.5930      0.6864     11.4176
N      7.5170      1.3442     11.2412
4

O      5.2156      0.3458     11.5238
H      5.3167     -0.1320     10.6367
C      6.4654      0.7240     11.3072
N      7.4380      1.2627     11.2613
4

O      5.2334      0.2779     11.5226
H      5.1591     -0.1406     10.6039
C      6.5018      0.8827     11.5002
N      7.4909      1.4530     11.3570
4

O      5.2094      0.4044     11.6086
H      5.1085      0.0456     10.6445
C      6.4610      1.0308     11.5812
N      7.5737      1.4912     11.3642
4

O      5.1178      0.4917     11.6653
H      4.9854     -0.1303     10.8991
C      6.5027      1.1473     11.6086
N      7.5285      1.4298     11.2866
4

O      5.1219      0.5231     11.6295
H      4.6310     -0.3293     11.0400
C      6.4044      1.1765     11.6617
N      7.4730      1.3691     11.2302
4

O      5.0687      0.5196     11.6815
H      4.7250     -0.0669     10.9569
C      6.2752      0.9743     11.5696
N      7.3415      1.4204     11.3613
4

O      5.1177      0.5386     11.5998
H      4.7007     -0.1039     11.0239
C      6.3395      1.0238     11.6500
N      7.3238      1.4032     11.4304
4

O      5.0740      0.6134     11.6981
H      4.7485      0.0240     11.1342
C      6.3940      0.9114     11.6746
N      7.2750      1.5069     11.6309
4

O      5.0959      0.5443     11.5224
H      4.7697     -0.1586     11.1020
C      6.3685      0.9913     11.6516
N      7.5635      1.4926     11.7162
4

O      5.1307      0.5091     11.4859
H      4.9409     -0.5967     11.3395
C      6.4433      1.0013     11.6180
N      7.5069      1.4003     11.7368
4

O      5.2064      0.4704     11.6040
H      5.0803     -0.5389     11.6997
C      6.4430      1.0148     11.6811
N      7.5575      1.4422     11.6842
4

O      5.3399      0.5296     11.6152
H      5.5078     -0.2119     12.1285
C      6.4907      1.1131     11.4445
N      7.5274      1.6324     11.4837
4

O      5.3456      0.5642     11.6656
H      5.2183     -0.2613     12.2910
C      6.4502      1.1319     11.4609
N      7.6095      1.5231     11.5377
4

O      5.4834      0.5240     11.5793
H      5.2261      0.1060     12.3931
C      6.5670      0.9694     11.5293
N      7.6482      1.3940     11.5446
4

O      5.3547      0.4644     11.4350
H      5.2318      0.1638     12.4603
C      6.5490      0.8721     11.4576
N      7.6087      1.3299     11.5470
4

O      5.3602      0.2764     11.4986
H      5.4176      0.1707     12.5533
C      6.4878      1.0124     11.4784
N      7.5480      1.4471     11.5648
4

O      5.3122      0.1212     11.7116
H      5.0008      0.0039     12.6706
C      6.3673      0.9091     11.4453
N      7.5733      1.2861     11.5715
4

O      5.3711      0.1075     11.8006
H      4.9121     -0.0670     12.6380
C      6.4000      0.8515     11.5588
N      7.5109      1.1364     11.4866
4

O      5.3377      0.1441     11.5788
H      5.2541     -0.1731     12.6272
C      6.4307      0.8901     11.6526
N      7.5081      1.2657     11.3671
4

O      5.3488      0.2736     11.5591
H      5.3348     -0.2503     12.3885
C      6.4538      0.8690     11.7543
N      7.4621      1.2740     11.3659
4

O      5.4539      0.0939     11.6087
H      4.9660     -0.1621     12.5178
C      6.6157      0.8883     11.8279
N      7.6276      1.1559     11.2479
4

O      5.5663      0.1416     11.6336
H      4.8910      0.0662     12.4601
C      6.6168      0.8331     11.7033
N      7.6671      1.1012     11.2716
4

O      5.5545      0.1580     11.6581
H      5.0929     -0.5722     12.5396
C      6.6251      0.8127     11.7139
N      7.7434      1.1086     11.2169
4

O      5.6354      0.5818     11.6676
H      5.5611      0.7377     12.5578
C      6.7220      1.1757     11.0430
N      7.8936      1.3938     10.9814
4

O      5.4679      0.7218     11.7919
H      5.8405      0.6734     12.5912
C      6.5532      1.4032     11.3200
N      7.6747      1.4359     10.7768
4

O      5.5147      0.7560     11.7219
H      5.6282      0.5339     12.6687
C      6.7004      1.5026     11.2282
N      7.7051      1.3774     10.7687
4

O      5.6384      0.6630     11.6078
H      5.6510      0.6035     12.5811
C      6.7308      1.4693     11.2372
N      7.7409      1.2372     10.7803
4

O      5.6443      0.5638     11.4112
H      5.5561      0.2721     12.3095
C      6.7473      1.3005     11.5052
N      7.7406      1.1532     10.9596
4

O      5.6102      0.5701     11.3605
H      5.5214      0.2368     12.2310
C      6.6231      1.2061     11.5768
N      7.7353      1.2596     11.0028
4

O      5.4546      0.6774     11.4017
H      5.0522      0.3177     12.2076
C      6.5822      1.1260     11.4901
N      7.6368      1.3602     11.0578
4

O      5.3074      0.7738     11.4597
H      5.3080      0.1775     12.2206
C      6.5121      1.1624     11.3912
N      7.6422      1.4155     11.2454
4

O      5.3172      0.7446     11.3975
H      5.5390      0.6835     12.3879
C      6.5037      1.2214     11.2703
N      7.5674      1.3899     11.1783
4

O      5.3177      0.5350     11.4236
H      5.1722      0.6046     12.4389
C      6.5255      1.1573     11.2913
N      7.7280      1.4443     11.3702
4

O      5.3832      0.5442     11.4585
H      5.4877      0.4145     12.4530
C      6.4951      1.2814     11.3576
N      7.6483      1.2653     11.3232
4

O      5.4001      0.5657     11.4464
H      5.7393     -0.0062     12.2313
C      6.4561      1.2563     11.3607
N      7.5910      1.2930     11.3356
4

O      5.2527      0.5608     11.3867
H      5.4727      0.0306     12.3103
C      6.4588      1.1432     11.2887
N      7.5605      1.5281     11.4336
4

O      5.2530      0.4134     11.3498
H      5.0644     -0.0349     12.2492
C      6.5451      1.0598     11.1358
N      7.6029      1.4687     11.4238
4

O      5.2504      0.4546     11.1356
H      5.7017     -0.3483     11.6386
C      6.5091      0.9247     11.2625
N      7.5897      1.4079     11.4269
4

O      5.3609      0.5343     11.1376
H      5.6467     -0.1782     11.6538
C      6.4906      1.0540     11.1991
N      7.5420      1.3149     11.4168
4

O      5.2971      0.6579     11.1811
H      5.1683     -0.2208     11.4637
C      6.4863      1.1219     11.1189
N      7.6416      1.1796     11.3861
4

O      5.3731      0.7154     11.0689
H      5.0108     -0.2685     11.4872
C      6.6289      0.8748     11.2248
N      7.7015      1.2060     11.1645
4

O      5.3776      0.6333     11.1345
H      5.0343     -0.1656     11.0753
C      6.5697      0.8881     11.1959
N      7.7458      1.2952     11.2309
4

O      5.3322      0.7246     11.3094
H      5.0759     -0.0200     10.8288
C      6.6147      0.8071     11.2446
N      7.6113      1.2776     11.1556
4

O      5.2849      0.7662     11.4197
H      5.3597      0.0101     10.9949
C      6.6439      0.7052     11.2970
N      7.6804      1.2782     11.2290
4

O      5.0919      0.7566     11.4024
H      5.2309      0.1480     10.6855
C      6.5770      0.8326     11.3462
N      7.6675      1.2141     11.2066
4

O      5.1656      0.7834     11.4370
H      4.8918      0.5094     10.5914
C      6.5550      0.8421     11.3382
N      7.6141      1.2299     11.2304
4

O      5.2697      0.8247     11.5240
H      4.4591      0.8399     10.9749
C      6.4463      0.8181     11.1467
N      7.5155      1.2681     11.2957
4

O      5.2246      0.7671     11.7221
H      4.1672      0.3907     11.5036
C      6.4458      0.7705     11.0858
N      7.4115      1.2679     11.3724
4

O      5.2088      0.8321     11.6864
H      4.2149      0.4342     11.2384
C      6.3990      0.8545     11.1709
N      7.3782      1.3192     11.4226
4

O      5.2586      0.8752     11.6103
H      4.8148      0.0990     11.3613
C      6.5134      0.9468     11.2049
N      7.4800      1.3627     11.5223
4

O      5.3072      0.8052     11.6075
H      5.0270     -0.1993     11.3537
C      6.5386      0.9895     11.3041
N      7.5557      1.4405     11.5296
4

O      5.1855      0.9280     11.7086
H      4.6771      0.2291     11.1617
C      6.4233      1.0199     11.2659
N      7.6119      1.3032     11.4287
4

O      5.1097      1.0438     11.7662
H      4.4615      0.2806     11.3348
C      6.3400      1.0254     11.3717
N      7.4977      1.2202     11.3378
4

O      5.1142      1.0055     11.7759
H      4.5479      0.1441     11.9035
C      6.2643      1.1492     11.3664
N      7.4354      1.1856     11.4030
4

O      5.1059      0.8327     11.9417
H      4.6790      0.0092     11.5923
C      6.2449      1.2249     11.2565
N      7.3876      1.2435     11.3493
4

O      5.1065      0.7577     11.9001
H      4.4985     -0.0427     11.7728
C      6.2580      1.2071     11.3077
N      7.3610      1.3928     11.4158
4

O      5.0305      0.5824     11.6711
H      5.1192     -0.4237     12.0670
C      6.3115      0.8565     11.6149
N      7.3685      1.2222     11.6632
4

O      5.1248      0.6966     11.5492
H      5.1950     -0.4316     11.6480
C      6.4502      0.9841     11.5109
N      7.6056      1.1276     11.7729
4

O      5.0725      0.7317     11.6575
H      5.0147     -0.1551     11.1818
C      6.5041      0.8886     11.5478
N      7.5781      1.0734     11.5987
4

O      5.1420      0.6621     11.6098
H      5.2541      0.2316     10.6848
C      6.3279      0.9010     11.6115
N      7.4886      1.0892     11.4111
4

O      5.1098      0.5216     11.5557
H      4.9323      0.6397     10.5837
C      6.3404      0.9605     11.6081
N      7.4519      1.1689     11.1404
4

O      5.1282      0.4441     11.5591
H      4.7917      1.0199     10.7793
C      6.3267      0.9211     11.5525
N      7.3450      1.2034     11.0405
4

O      5.0025      0.5522     11.5610
H      4.9478      1.5522     11.6675
C      6.2412      0.7853     11.5535
N      7.2045      1.2108     11.1569
4

O      4.7400      0.7142     11.6831
H      4.5684      1.4866     12.1497
C      6.2254      0.5988     11.5032
N      7.2481      1.2844     11.2910
4

O      4.8200      0.8041     11.6511
H      4.1463      1.4636     12.0455
C      6.1913      0.6602     11.4888
N      7.1817      1.2953     11.2952
4

O      4.8454      0.6334     11.6535
H      5.0782      1.2991     12.4863
C      6.2139      0.7399     11.4346
N      7.2169      1.3531     11.3963
4

O      4.7991      0.6404     11.6428
H      4.4939      1.2044     12.3015
C      6.2671      0.8157     11.5306
N      7.2382      1.3950     11.2624
4

O      4.8830      0.4489     11.5404
H      4.5433      1.3718     12.1691
C      6.3451      0.7586     11.5935
N      7.3650      1.3848     11.1956
4

O      4.9015      0.4830     11.6167
H      4.3225      1.1334     12.0915
C      6.4952      0.6054     11.7414
N      7.4547      1.2749     11.4077
4

O      5.1103      0.5327     11.4970
H      5.1951      1.4394     12.1382
C      6.7306      0.6319     11.6638
N      7.4406      1.4930     11.3333
4

O      5.0357      0.5428     11.5784
H      4.8223      1.5309     11.3868
C      6.7246      0.6086     11.7013
N      7.3786      1.4565     11.3773
4

O      5.0788      0.7079     11.6226
H      5.5282      1.7803     11.1676
C      6.3950      0.5809     11.7874
N      7.2377      1.5238     11.3582
