4

O      9.1165     11.9397      1.5701
C      9.2238     13.2310      1.1295
H      8.3260     13.7607      0.6801
H      8.8606     10.9972      1.4568
4

O      7.9733     12.2860      1.4565
C      8.8842     13.3491      0.6203
H      9.9420     13.5551      1.1320
H      8.5567     11.8542      2.0540
4

O      7.9399     12.3298      1.3020
C      8.8387     13.0930      0.3886
H      9.7434     13.3751      1.2339
H      8.3735     11.9097      2.1904
4

O      7.8092     12.3258      1.2367
C      8.8092     13.1231      0.3970
H      9.5115     13.6011      1.1615
H      8.4468     12.3992      2.0589
