240

C     19.6501      9.1385      0.8938
C     16.8541      1.7956      6.8796
C     15.7911      3.1276      1.3807
C      7.0801      5.1281     15.5363
H     10.1094      3.2550      2.7730
C      7.6772      3.7551     15.6859
C     16.1165      4.1335      5.5104
C     16.1735      7.3251      6.5151
C      6.0459      1.9892     17.2040
C     14.0190      8.6559      0.7927
N     12.5704      3.2685      6.3045
C     13.4375      6.0614     13.5478
C     16.2013      4.1597      6.9600
H     13.2106      5.3597     12.4754
C     15.6723      6.3514      4.3939
C     17.1503     10.6237      3.4006
H      1.1840     -0.1096     22.3364
H     10.7737      2.2778      5.5120
H      6.1796      5.4645     16.4296
C     16.7230      9.2058      3.2804
H      8.2742      3.8558     16.5211
H     12.0176      7.1458     10.4529
H     11.4685      4.8999      6.9112
C     15.6509      2.6934      7.5334
H      9.3884      9.5727     13.4535
H      6.9626      2.0948     17.7394
O     14.9319     10.9536      1.7487
C      8.3593      0.3976     21.1420
H     15.5786      4.4718     12.5963
C      6.9317      6.2170      9.8507
H     14.2749      6.5630      9.8346
C      6.3653      2.7332     15.7847
H      6.3483      5.2147     20.4462
H      5.0396     -2.3991     20.9371
C     17.4861     10.8315      4.5944
C     10.1605      8.1831     18.0380
O     14.6325      8.4233      4.8292
C     11.3576      7.5141      7.1920
C      8.6235      8.2101     12.3862
C     20.1831      8.0950      0.0958
C      6.3896      7.2426     12.3834
H      5.1744      3.6569     14.2693
H     17.0124      9.5463      1.5406
H     14.0891     -0.4596      3.4975
H      9.1139      5.7923      8.4330
C      7.2005      6.7904     11.1434
C      7.9681      6.1948     16.4299
H     21.4792     10.7712      0.9718
C     11.7746      6.1633      5.4135
H     15.2800      8.8276      7.9447
H     17.2189      1.4439      3.4184
H      5.0149      6.4557     14.3950
C      9.8682     -1.2758     20.2978
C      5.6841      5.9156     22.2632
C     15.8679      7.6161      5.1750
C      4.5679      5.9050     13.4360
C     17.5931      8.7912      2.1664
H      9.5101      7.2746     18.1378
H      8.4216      8.6468     16.2180
H      3.5126      1.0177     23.5252
H      6.8636      0.4279     22.8799
H     18.3700     12.4714      4.0480
C     12.6980      2.7639      8.6992
C     13.5178      8.5510     12.2249
C     14.4630      2.1676      6.9020
C     12.3700      6.3300     14.3679
H      5.4734      7.6918     11.9611
H      9.6919      2.7785      4.5520
H      6.0445      4.7802     18.5975
C     10.0125      7.6556     12.9705
O     15.1112     10.2915     -0.1497
C     15.9850      8.6529      7.1821
C      3.2843      1.0961     22.1684
C     16.3113      1.8854      4.5414
H     10.3820     10.5189     14.8138
H     18.4983     12.3698      5.9753
C      4.0346      3.7029     16.2926
C     10.7541      8.3947     13.9306
C     10.9358      7.1367     11.8701
C      5.4646      3.1533     18.0723
H     16.9449     12.6678      5.4541
H      8.2947      3.7209     14.7947
H      8.4508      1.4785     20.6902
C      2.4703     -0.6831     20.8258
C      5.0787     -1.3386     20.8430
C     10.6356      4.7886      3.6696
C     15.9768     10.0192      6.3230
C     15.7287      3.8890      2.4929
H      1.7713     -1.4402     20.7891
H     16.0243      8.5343      0.9048
H      9.6034      4.6274      1.6291
H     13.0583      9.4522     12.2935
H     14.3126      3.6034     12.7317
O      5.6835      6.9030     19.6254
C     13.5417      7.7804      4.5716
H     15.9219     10.3469      7.3176
C     10.5137      8.4855     16.6463
C     10.8255      7.3757     16.0125
C     10.2503      7.4110      7.8666
H     13.9283      2.5876      4.5217
H     13.9472      7.7818     10.5940
H      6.0983      1.9072     14.9278
H     12.3108      1.6344      8.4877
C     16.5532      1.8183      1.0095
C     13.0354      8.4253      1.9769
C     12.7531      3.9657      4.0228
C      7.3882     -1.2325     20.1036
H     15.6938     -0.9478      3.8152
H      9.4289      7.9147      7.1472
H     15.7431      7.1641      0.2305
O     12.9654      9.3352     19.3842
C      6.5143     -0.7014     21.0533
C     13.6664      6.8178      6.6661
C     15.1796      7.5834      0.9828
H     15.5312      8.9843      3.0246
C     13.7500      7.4759      2.9445
H      9.0766      0.3419     22.0284
C     15.5445      1.2093      3.3862
C     13.1696      2.7835      7.3257
C     10.7066      2.7270      4.6813
C     18.0771     12.1993      5.0110
C      3.2501      3.4654     22.8412
C     11.7575      7.7116     14.6390
C      3.9964     -0.5448     20.6740
N     15.0069     -0.1964      3.7921
H     16.3783      1.1212     -1.1802
C     16.0614      1.1847     -0.2125
O     17.3117      6.2819      2.6911
C      9.3446      6.6437     13.7673
H     18.0204      9.3554      6.3372
H     13.9755      1.2432      7.3627
C     10.3017      4.2296      2.4967
C     10.3715      7.5447      9.3450
H     14.7682      1.9869      5.9935
H      8.0548      5.0572     13.6422
C     10.1640      9.5321     14.2236
H     15.6439      6.3317      9.6658
H     10.2524      4.6497      5.6604
H     11.9108      9.1554     17.3362
H     14.7886      9.3800     10.7329
H     14.9229      0.9456     -0.3291
H     12.3968      3.7412      8.1747
C     15.0848      6.9995      2.4148
H      4.8652      6.0816     22.7807
C     14.6207      8.4904     11.2120
H      3.1799      3.2394     23.9158
H     17.8505     11.4515      2.7199
C      4.2154      8.4445     17.4001
C      7.9953      7.6902     15.9638
C     20.3040     10.4994      0.7404
C     18.9126      8.5833      1.9827
C      4.3765      6.1855     19.4380
C     14.4948      4.8652      2.4579
C      5.9271      6.2361     13.3518
C      5.5516      7.7893     17.3166
C      8.0225      6.7747     14.0672
C      4.2107      5.1527     20.5622
C     14.2181      4.9807     14.0355
H      8.6954      5.8906     18.1813
C      6.2687      7.4000     18.5087
H      9.6005      5.5752     13.1494
C      7.1078      5.6029     14.2134
H     12.6694      3.2263      3.1509
O      7.5909      6.9699     18.5660
H      8.6567      9.1975     11.8910
H     14.6652      1.4378      3.0332
H     12.9526      9.3066      2.4203
H      4.0358      4.9032     14.0146
H      4.6048      5.4384     17.3392
C     12.1407      7.5702     11.4220
C     16.1724      6.4898      3.0016
H     15.0247      7.5811      8.8707
C     11.3094      4.0019      4.6262
C     13.3055      6.5200      5.2560
H     15.8450      0.0710      6.0665
C     14.3299      5.5608      4.6466
H     16.8817      0.0197      2.1027
H     13.0089      6.8334      8.6797
C      8.0974      6.3764      8.8894
C      4.2953      1.0601     20.9583
O      6.2958      4.2759     17.9234
C      6.4598      7.8204     16.1053
C     12.7185      6.3282     15.7775
C     11.3020      6.1217      3.5896
H     16.8445      8.5979      7.8287
H     15.5470      8.0039     11.5533
H     10.8573      2.0528      3.6954
C      2.1788      0.1439     21.7872
C     13.4981      5.0181      3.4253
C      5.2251      3.5234     15.5680
H     13.6553      4.6022      7.6539
H     10.8011     -0.8216     21.0020
H     15.3446     11.9271      1.2835
H      6.6962     -1.8812     19.5378
C     14.9273      6.5379      8.8385
C     11.0932      4.8554      5.7872
C     16.6797      1.0425      2.3756
C     14.5176      4.3163      5.6176
C     15.0707      6.2391      7.1844
C     15.0019      4.0567     13.2720
H     11.5989      5.5359     14.1625
H     17.6490      2.2139      0.8511
H     16.5058      0.1778      0.0321
H      5.3482      1.2255     16.9922
C     12.5264      8.7143     18.0602
C      9.0360      7.1341      9.7756
H      5.8466      7.0813     15.7686
H     20.0383     10.6242     -0.2443
C      8.7353     -0.5918     20.2025
H      9.8061      6.9530     14.8901
H      5.7279      1.9569     22.4461
C     12.6462      6.9766      7.5319
C     13.5034      3.4392      5.1372
O      8.8243      5.5716     17.2755
C     11.4353      7.6245     18.6140
C      6.1720      2.2554     20.2708
C      5.1595      2.6398     19.5037
C     16.2399      1.1380      5.7736
H      7.6915      7.3649      8.2686
H      5.9978      4.0332     21.6435
H     13.1906      8.5928     19.7638
C     14.6686      4.7035      6.9816
C      3.8016      5.4823     18.1017
C      2.9871      2.5103     21.8384
H     20.1623     11.1175      1.4977
C      8.3581      7.4048     11.0499
H      3.4877      5.3389     21.2191
H     10.2962      6.5049     11.1120
H      7.2675      2.8230     20.2608
C      3.8623      3.1463     17.6540
C     17.2629      9.6333      5.5419
C      7.0339      0.4267     21.7521
C      5.6731      4.9862     21.1712
C      5.8535      1.4260     21.4381
H     13.7073      3.0454      8.7781
H     10.3781      8.7428      9.8864
H     18.5990      9.2645      0.3892
C     14.5665      9.9268      0.8328
H      3.1350      4.4197     22.5318
H     10.4492      9.3953     16.6872
