237

C     19.4939      9.2305      0.8612
C     17.0207      1.8790      7.0079
C     15.8355      3.2445      1.2947
C      7.1222      5.2757     15.6623
H      9.8681      3.3249      2.4430
C      7.6309      3.6978     15.6262
C     16.0600      4.1475      5.6083
C     15.9828      7.1777      6.5752
C      6.0637      2.0501     17.2295
C     13.9220      8.6445      0.8480
N     12.6985      3.3372      6.1880
C     13.4335      6.0942     13.4786
C     16.2576      4.1330      6.9768
H     13.7110      6.6821     12.4346
C     15.6504      6.2203      4.2926
C     17.0412     10.5190      3.3250
H      1.3819      0.2586     21.9384
H     10.6716      2.1387      5.5031
H      6.0882      5.2741     15.6234
C     16.7040      9.0477      3.3980
H      8.2453      4.1361     16.5988
H     12.2732      6.9193     10.2829
C     15.8243      2.6743      7.5703
H      9.6003      9.9720     13.4369
H      7.2129      1.8759     17.7215
O     14.7593     10.9554      1.7121
C      8.4490      0.5543     21.2409
H     15.4476      4.5436     12.4635
C      6.8012      6.1678      9.7295
H     14.2927      5.9059      9.3087
C      6.3448      2.6777     15.8708
H      6.2436      5.7952     20.6417
H      5.1256     -2.4190     21.1886
C     17.5044     10.8240      4.7459
C     10.0882      8.1146     18.2109
O     14.8183      8.5241      4.8962
C     11.4932      7.4645      7.0681
C      8.7155      8.2563     12.1943
C     20.2164      8.1209      0.0618
C      6.3267      7.1705     12.3051
H      5.0368      4.0805     14.7914
H     17.1234      9.7069      1.4122
H     14.3971     -0.3868      3.1323
H      8.6595      5.3732      8.7766
C      7.0367      6.6967     11.0803
C      8.1096      6.2467     16.3911
H     21.3297     10.3800      1.3343
C     11.7170      6.1783      5.1581
H     15.2478      8.4546      8.1454
H     17.6711      1.2489      2.8312
H      4.7235      6.4845     14.1509
C      9.7611     -1.4116     20.4555
C      5.4922      5.8733     22.4265
C     15.7756      7.4903      5.0557
C      4.6025      5.9795     13.2637
C     17.5197      9.0277      2.0739
H      8.1868      8.7038     15.4517
H      3.1111      0.6255     23.2413
H      7.4584      0.5849     22.9607
H     18.2265     12.5592      4.0681
C     12.6346      2.8549      8.5475
C     13.3777      8.4859     12.4322
C     14.3946      2.3013      7.0729
C     12.4060      6.4224     14.3168
H      5.2429      7.5796     12.1313
H      9.5345      2.5938      4.5979
H      6.5429      4.9572     18.6932
C     10.1909      7.6651     13.0236
O     14.9969     10.3036     -0.1572
C     16.1067      8.3929      7.3800
C      3.3219      1.0304     22.2031
C     16.1707      1.8591      4.6919
H     10.4087     10.1155     15.2920
H     18.3769     12.4328      5.6870
C      4.0306      3.6090     16.2339
C     10.8187      8.4212     14.0609
C     11.0492      6.8849     11.8998
C      5.4784      3.0932     18.1240
H     16.8759     12.4956      5.1378
H      8.6200      3.2305     15.2772
H      8.3599      1.6773     20.9001
C      2.6923     -0.7199     20.7104
C      5.0425     -1.3816     20.8873
C     10.7177      4.8142      3.4869
C     16.1193      9.6619      6.3165
C     15.8450      4.0046      2.4389
H      1.7644     -1.2067     20.1434
H     16.1103      8.2261      0.8834
H      9.9127      4.7833      1.6768
H     12.9958      9.4810     12.3862
H     14.7331      3.3942     12.4676
O      5.5215      6.8836     19.7232
C     13.6355      7.7654      4.4909
H     16.6000     10.3292      7.2704
C     10.4128      8.4756     16.7382
C     10.9280      7.5355     15.9677
C     10.3863      7.6158      7.7479
H     14.2830      2.5515      4.8442
H     13.9522      7.5630     10.7036
H      6.5808      1.8017     15.1843
H     12.4934      1.6642      8.6709
C     16.5899      1.8928      1.0522
C     13.0851      8.4024      2.0717
C     12.7456      3.9806      3.8824
C      7.3669     -1.0882     20.0510
H     15.5752     -0.9196      3.6426
H      9.4559      7.5402      7.3022
H     15.2435     10.3593      5.6921
O     12.9605      9.2944     19.4092
C      6.4909     -0.6636     21.0577
C     13.5944      6.7503      6.7141
C     15.0885      7.7205      0.9786
H     15.6553      9.2074      3.2330
C     13.7444      7.3849      2.9953
H      9.1350      0.3056     22.1455
C     15.5519      1.1515      3.3205
C     13.2329      2.9118      7.3139
C     10.5700      2.6113      4.6887
C     17.8054     12.0784      4.8833
C      3.0278      3.4959     22.7525
C     11.8942      7.7975     14.6480
C      4.1275     -0.4741     20.7679
N     15.0663     -0.0748      3.7916
H     16.5162      1.5478     -0.9745
C     16.2218      0.9255     -0.2316
O     17.4619      6.2357      2.9329
C      9.4256      6.5289     13.7976
H     18.5458      9.7717      5.6342
H     14.0098      1.2758      7.6796
C     10.3237      4.1475      2.3853
C     10.3830      7.4937      9.3847
H     14.4267      1.6095      6.1687
H      7.7503      4.8291     13.5191
C     10.1981      9.5605     14.3635
H     15.7474      6.3594      9.4952
H     10.1130      5.2319      5.6199
H     12.2462      9.5641     17.5212
H     14.3749      9.5616     11.0432
H     15.1050      0.7220     -0.0002
H     11.8390      3.4910      8.7194
C     15.0221      7.0972      2.3202
H      4.6370      5.7839     23.1170
C     14.4532      8.4199     11.2565
H      2.8867      3.1696     23.9285
H     16.6527     11.3485      2.4929
C      4.1523      8.4963     17.6229
C      7.8751      7.6440     15.9475
C     20.3020     10.5157      0.8191
C     18.8302      8.5937      2.0431
C      4.2930      6.2082     19.4078
C     14.7042      4.8136      2.3971
C      5.9774      6.2757     13.3621
C      5.5953      7.7588     17.4523
C      8.0263      6.9565     14.0434
C      4.2810      5.0759     20.5921
C     14.3847      5.0952     13.9263
H      8.8396      5.7309     18.1604
C      6.2528      7.1562     18.4650
H      9.4212      5.4567     13.1368
C      7.0920      5.5495     14.0497
H     12.7841      3.4025      2.8771
O      7.5198      6.8159     18.5001
H      8.8221      9.3242     11.8603
H     14.4898      1.7104      2.8840
H     12.9392      9.3685      2.4223
H      4.4213      4.6699     13.3887
H      4.7058      5.6813     17.4950
C     12.1385      7.7114     11.2850
C     16.2097      6.4828      3.0071
H     14.6432      7.4478      8.9057
C     11.3710      3.9696      4.4698
C     13.3627      6.5032      5.2602
H     16.0072      0.0935      5.7431
C     14.3228      5.5023      4.5109
H     16.5010     -0.1223      2.0232
H     13.1155      6.6841      8.6525
C      8.1795      6.3765      9.0066
C      4.4097      0.9481     21.2184
O      6.2856      4.4377     17.8264
C      6.4149      7.8935     16.0171
C     12.7914      6.1782     15.7399
C     11.3090      6.2251      3.6934
H     16.8189      9.1632      7.6637
H     15.3524      8.0044     11.4509
H     11.1512      2.0854      4.1704
C      2.4423      0.0878     21.6243
C     13.6267      5.0200      3.3901
C      5.0487      3.3941     15.4475
H     14.1564      4.8345      7.9149
H     10.6089     -0.8847     20.8671
H     15.3908     11.7008      1.2668
H      7.0575     -1.8333     19.2511
C     14.9417      6.4817      8.8187
C     11.2125      4.9646      5.7945
C     16.6025      0.9825      2.2643
C     14.5980      4.4715      5.6629
C     14.8872      6.2382      7.3697
C     15.1442      3.9673     13.0861
H     11.4966      6.1722     13.9715
H     17.7546      2.3068      0.7861
H     16.5815     -0.2149     -0.1911
H      5.8520      1.0125     17.2532
C     12.5446      8.7596     18.1679
C      8.9518      7.2530      9.7523
H      6.1100      6.8705     16.3048
H     20.3262     11.1089      0.0069
C      8.5901     -0.6685     20.3202
H      5.5211      1.6988     22.4500
C     12.7005      6.9526      7.6389
C     13.6770      3.5840      5.1265
O      8.8816      5.5382     17.2615
C     11.5094      7.7629     18.6041
C      6.3385      2.2268     20.3702
C      5.3991      2.8085     19.5101
C     16.1195      1.1783      5.8835
H      8.0878      6.5991      8.1293
H      5.8964      3.8232     21.3857
H     13.9450      8.6541     19.6402
C     14.8932      4.8727      7.0782
C      3.8380      5.4984     17.9621
C      2.9970      2.5661     21.8580
H     19.6804     11.0202      1.3942
C      8.2719      7.3989     11.0180
H      3.6792      5.7963     21.1619
H     10.3596      6.5673     11.2203
H      7.1924      2.9469     20.5879
C      3.9872      3.0548     17.6010
C     17.2622      9.6676      5.5647
C      6.8808      0.4905     21.9550
C      5.6226      4.8738     21.2507
C      5.7950      1.4058     21.4144
H     13.3371      2.9789      9.2317
H     10.5356      8.4714      9.9051
H     18.5560      9.1537      0.4914
C     14.4556     10.0799      0.8794
H      3.0255      4.5180     22.8479
H     10.0536      9.2012     16.0876
