244

C     19.3637      9.0573     13.5864
C      4.0035      1.5843      6.9687
C      3.2072      3.3090      1.2152
C      7.0713      5.1352      2.7770
H     -2.6828      3.0593      2.6944
C      7.5016      3.5440      2.9311
C      3.0799      4.0166      5.7245
C     15.8671      7.4562     19.5055
C      5.7417      2.0202      4.3285
C     14.0306      8.6607     13.7182
N     -0.4196      3.0025      6.3558
C      0.5260      5.7210      0.5555
C      3.1159      4.1410      7.3130
H      0.8807      5.8428     -0.5012
C     15.7516      6.2988     17.3976
C     17.1876     10.4870     16.2020
H      0.9909      0.2930      8.9841
H     -1.5321      2.1705      5.3334
H      6.0983      5.4849      3.2870
C     16.5809      9.1381     16.0932
H      8.1128      3.3577      3.7461
H     12.7745      6.7658     11.1036
H     -1.1821      5.1631      6.2905
C      2.9057      2.7654      7.4980
H     -3.1545     10.2546      0.2368
H      6.5179      1.4408      5.0022
O     15.1423     10.8617     14.7050
C      8.1049      0.6803      8.3861
H      2.9648      4.7682      0.0587
C      6.9889      6.1808      9.7656
H      1.0100      7.1486      9.2713
C      6.1517      2.5749      2.8982
H      6.1744      5.2105      7.1152
H      5.0078     -2.1922      7.2058
C     17.4290     10.8248     17.4024
C     -2.9125      8.3052      5.0860
O      1.7951      8.5467      4.8380
C     -1.5650      7.5553      7.1049
C      8.6590      8.3471     12.2229
C     20.4043      7.8904     13.0916
C      6.5244      7.0534     -0.6689
H      5.9345      4.1201      1.8977
H     16.8670      9.4700     14.0677
H      1.0904     -0.2003      3.1284
H     -3.9074      6.0427      8.4542
C      7.1918      6.5828     10.8983
C      8.0611      6.1405      3.4669
H     20.9190     10.6498     14.4205
C     -1.3260      6.3972      5.1375
H     15.5690      9.0877     20.8855
H      5.0274      0.5201      2.3714
H     17.8273      7.0335     15.2165
C      9.9789     -1.2837      7.2992
C      5.6518      5.6619      9.3066
C     15.8330      7.5583     18.1422
C      4.9198      5.5467      0.5032
C     17.3556      8.6626     15.0129
H     -3.6337      7.3528      5.3494
H      8.1380      8.5448      3.1261
H      3.3653      0.6866     10.1422
H      7.1325      0.1793      9.9285
H     18.3050     12.9419     17.5167
C      0.0487      2.9839      8.7188
C     13.3283      8.4146     12.1261
C      1.5489      2.2078      6.7919
C     -0.5375      6.2855      1.4149
H      5.6217      7.5210     -0.8704
H     -3.3327      2.6580      4.8599
H      7.1126      4.7752      5.7182
C     10.0114      7.7887     12.7719
O     14.8964     10.5165     12.4335
C     16.2610      8.8564     19.9374
C      2.9167      1.2019      9.2913
C      3.2224      1.8065      4.6701
H     -2.1111     10.0545      1.8210
H     18.5322     11.8122     18.7257
C      3.9718      3.9197      3.3593
H      8.7675     -2.7792      5.3253
C     -2.2485      8.5909      0.8104
C     10.9797      7.2099     11.7423
H      9.6598     -2.9551      7.7137
C      5.1912      3.1165      5.1668
H     17.0121     12.6218     18.3839
H      8.2687      3.3247      2.2813
H      7.9837      1.7927      8.0481
C      2.5946     -0.9031      8.1489
C      5.1470     -1.2917      7.6939
C     -2.1775      4.7644      3.2760
C     16.2274     10.1364     19.2645
C      2.7647      3.9245      2.5401
H      1.6868     -1.5279      7.9070
H     16.1397      8.1343     14.1059
H     -3.0684      4.7692      1.4483
H     13.4495      9.4651     11.7742
H      2.1496      2.8241     -0.2293
O      5.4073      7.0136      6.7883
C      0.6732      7.8094      4.3678
H     16.0931     11.0427     19.9079
C     -2.9126      8.3813      3.5658
C     -2.0013      7.4261      2.9599
C     -2.7469      7.7824      7.8776
H      1.5225      2.6012      4.4329
H     14.2305      7.2052     11.0176
H      6.3802      1.8932      2.0365
H     -1.0629      2.8376      8.9190
C      3.8743      1.9669      1.1426
C      0.1199      8.4693      1.9795
C     -0.3089      3.8027      4.1437
C      7.3313     -1.2564      7.0890
H      2.1998     -0.7728      4.3713
H     -3.7755      7.7594      7.5187
H     15.3577     10.1209     18.6013
H     15.2624      6.8285     13.3040
O      0.0073      9.2092      6.3523
C      6.4938     -0.9842      8.1581
C      0.5458      7.0571      6.7804
C     15.1623      7.6906     13.8013
H     15.5610      9.4059     15.9173
C      0.6993      7.4071      2.9113
H      8.4410      0.2346      9.3003
C      2.7302      1.0308      3.2659
C      0.3634      2.8245      7.2878
C     10.2640     -2.5649      6.9219
C     -2.2532      2.6024      4.7052
C     17.7284     12.0591     18.0616
C      3.3042      3.3505     10.1149
C     -1.2780      7.7318      1.6228
C      4.1592     -0.5306      8.1592
N      1.9642     -0.0342      3.6131
H      3.0316      1.6410     -1.0962
C      3.2234      1.2124     -0.2484
O     17.3091      6.3038     15.4557
C      9.4818      6.6751      0.8234
H     18.5571      9.7996     18.8408
H      1.7920      1.2697      7.1072
C     -2.9000      4.2196      2.4022
C     -2.6028      7.6193      9.3533
H      1.4615      2.3389      5.7447
H      7.7066      4.7134      1.0777
C     -2.7902      9.6706      1.0336
H      2.3786      5.8744      9.1054
H     -2.8357      5.5044      6.5574
H     -0.8082      9.5378      4.4863
H     14.6400      8.7543     10.4670
H      2.3266      0.8849      0.1334
H     -0.2290      4.0329      8.5921
C     15.0764      7.1537     15.3349
C     14.6671      8.1863     11.3148
H      3.4608      2.9054     11.1146
H     17.9796     10.8640     15.3920
C      4.3436      8.4673      4.5768
C      7.8309      7.5748      2.9228
C     19.9468     10.5782     13.8801
C     18.6798      8.6243     14.9588
C      4.1226      6.1090      6.3171
C      1.5946      4.6510      2.3940
C      6.1192      6.0639      0.4021
C      5.6174      7.6343      4.3796
C      8.0650      6.9062      1.0844
C      4.0366      5.1808      7.4774
C      1.0075      4.7794      1.2394
C      6.0125      6.9683      5.5874
H      9.5335      5.8032      0.0951
C      7.2276      5.7221      1.3369
O      7.3490      7.0167      5.7595
H      8.5942      9.4185     12.2940
H      1.9520      1.8976      2.9370
H     -0.2672      9.3417      2.6325
H      5.1818      5.2543      1.4896
H      4.7813      5.2791      5.0320
C     12.3273      7.4641     11.6674
C     16.0784      6.6532     15.9338
H      2.3548      7.8258      9.0451
C     -1.7683      3.9098      4.5681
C      0.1574      6.6614      5.3358
H      2.9136      0.1882      5.9075
C      1.4499      5.7006      4.8585
H      3.6596     -0.2713      1.6147
H     -0.7137      6.3651      8.5032
C     -4.7956      6.5951      8.9133
C      4.3137      0.8907      8.3073
O      6.4340      4.3295      5.1378
C      6.3517      7.7085      2.8575
C      9.9116     -3.0087      5.4813
C     -0.1419      6.0759      2.9158
C     -1.5418      6.1693      3.5384
H     17.5173      8.6158     20.1179
H     15.5560      7.9355     12.0760
H     -2.3363      2.1693      3.7517
C      1.9668      0.1347      8.7463
C      0.6630      5.0614      3.6884
C      5.1186      3.5867      2.4345
H      1.0653      4.6559      7.8415
H     10.8205     -0.5657      7.5659
H     14.4162     11.6141     14.4588
H      6.5921     -1.6078      6.1840
C      2.0119      6.9187      8.7969
C     -2.0627      5.2778      5.7890
C      3.8621      0.9101      2.2445
C      1.7069      4.4732      5.6725
C      1.8868      6.5575      7.3773
C      2.3401      3.8215      0.2876
H     -1.2248      5.3850      1.6493
H      4.6918      2.3577      0.4853
H      3.7905      0.3231     -0.5074
H     11.2782     -2.1911      7.2811
H      5.1496      1.2008      3.7517
C     -0.5862      8.5146      4.9348
C     -3.9735      7.4192      9.8947
H      6.2725      6.5978      2.4683
H     19.9508     11.0167     12.7975
C      8.6138     -0.7314      7.4679
H      9.4125      6.3594      1.9666
H     10.7512     -2.4261      4.8890
H      5.8354      2.1451      9.5767
C     -0.5908      6.6885      7.6687
C      0.6993      3.4372      5.1305
O      8.7985      5.6263      4.3294
C     -1.6254      7.7754      5.5669
C      6.1552      2.3941      7.4701
C      5.1977      2.6383      6.5617
C      3.1283      1.0887      5.7435
H     -5.2484      7.5354      8.4677
H      6.1052      3.9993      7.5406
H      0.2053      8.3253      6.6550
C      1.8096      5.0104      7.2905
C      3.7619      5.3268      5.2112
C      2.7277      2.6650      9.1575
H     19.2978     11.1036     14.3522
C      8.3745      7.4290     11.1772
H      3.9255      6.0036      8.1799
H     10.4118      6.8176     10.8451
H      7.1363      2.8316      7.4892
C      3.8319      3.1417      4.6376
C     17.4868      9.7925     18.3728
C      6.7934      0.3735      8.8653
C      5.4982      4.9223      7.9407
C      5.7090      1.3872      8.6687
H      0.6035      2.6338      9.5369
H     -1.7799      7.7457     10.3054
H     18.4438      9.0194     13.0457
C     14.7910      9.9881     13.4977
H      3.7003      4.3683      9.5353
H     -2.8986      9.3482      3.1283
