259

C     19.4804      8.6807     13.7150
N     -1.7396     10.2664      1.9545
C      3.8692      1.4942      7.0765
C      2.0166      2.8480      1.4403
C      7.3569      5.0237      2.2968
H     -3.2193      6.8332      2.2876
C      7.1664      3.6663      2.5039
C      3.2944      3.9728      5.3119
C     16.2383      7.1219     19.4558
C      6.0320      1.7156      3.8848
C     -7.1588      8.3483      9.4196
C     13.9410      8.6524     13.6340
N     -0.1214      2.6504      6.2441
C      0.2635      5.8513      0.4058
O     -1.6042      2.6246      0.8986
C      2.9562      3.9024      6.9193
C     15.5237      6.1696     17.5539
C     16.1003     10.3307     16.4453
H    -11.3214     13.6258      9.9722
H     -3.6106      3.4154      5.0640
H     16.9970      5.3410     15.1495
C     16.9840      9.1425     16.2861
H     -8.9152      7.5356     10.8240
H      8.1372      2.8948      2.7616
H     12.8267      6.8795     10.4533
H     -0.8983      5.2445      6.3024
C      2.7597      2.6622      7.6804
H      7.0316      1.3214      4.1589
O     14.2941     10.6483     14.7506
C     -4.8127     12.7287      8.6301
C      7.0803      6.0153      9.6800
H      2.3660      0.0953      6.9383
H      2.8106      6.6316      9.0883
C      6.1650      3.0049      3.1759
H      5.9986      3.7945      7.5658
H     -8.1874     10.5160      9.3977
H     -8.7404      7.5852      8.9560
C     17.0935     11.0392     17.2942
C     -3.1575      8.4867      4.8390
O      1.8832      8.4778      4.7890
C     -1.5305      8.2425      6.8988
C      8.5819      8.4796     11.7728
C     20.3232      7.7782     12.7115
C      6.4302      6.7944     -0.8586
H      5.8750      4.4877      2.5410
H     17.0900     10.1045     14.3655
H      2.2668     -1.3610      4.2453
H     -5.4723      6.6963      7.5281
C      7.2031      6.5487     10.8944
C      8.0027      5.7620      3.2197
H      7.8616      7.5395      2.1175
C     -1.3180      6.7792      5.0525
H     16.1556      8.3013     20.9460
H      1.8372     -0.4870      1.7928
H     15.7873      6.8527     13.3616
C     -3.0662     11.7016      7.1194
C      5.8510      5.1375      9.2553
C     16.0688      7.4260     17.9768
C      4.7788      5.3891      0.3903
C     17.7252      9.3459     15.1211
H     -3.6829      7.4183      4.9939
H     -9.1471     14.0948     10.5254
H     -6.0243     12.5144     10.0851
H     17.0984     13.0021     16.7265
C      0.0951      3.2724      8.5972
H     20.4442     10.3572     13.9325
C     13.2900      8.3734     12.2758
C      1.6935      1.6296      7.8956
H     -2.1039      8.3507      9.3501
C     -0.8439      6.2330      1.2287
H      5.2717      7.0643     -1.0620
C      9.9112      7.8233     12.3703
O     15.6214     10.4626     12.9506
C     -6.3331      8.5553      8.4312
C     16.8621      8.3377     20.1836
C     -9.4874     14.5113      9.6971
C      2.8417      1.4416      5.0773
H     -2.3241     11.1103      2.3148
H     -2.6364     10.7350      0.0322
H     -7.2265     11.6410      7.1002
H     -8.7091     17.4979     10.5815
C      3.9453      3.3421      3.2849
H     -3.3951      8.9289      6.6299
C     -2.3204      8.4919      0.6272
C     11.0815      7.4870     11.5437
H     -1.7388     10.3737      5.7421
C      5.1344      2.1454      5.1648
H      3.7503     -0.5877      6.1621
H     -2.4303      2.0417      0.3552
C    -10.4194     12.2817      8.5788
C     -8.2073     11.0413      8.6039
C     -2.4122      5.1978      3.4260
C     16.6825      9.3759     19.2858
C      2.2614      3.4799      2.7717
C     -8.1902      7.3665      9.8400
H     15.4505      8.9134     13.7195
H      9.3231      4.9590      4.3506
H      1.6923      4.5757     -0.6958
O      5.5686      6.3878      6.3962
C      0.6428      8.1894      4.3348
H     -8.6289     10.5203      7.8594
C     -3.1089      8.7679      3.4136
C     -2.5111      7.4538      2.8331
H     -6.2903      7.7792      7.6901
C     -2.8141      7.9403      7.4575
H      2.2936      3.8757      5.0177
H     13.1105      8.8026     10.3874
H      5.0161      3.3964      0.7801
H     -0.2892      4.0258      8.0328
C      3.0508      1.5454      1.4911
C     -0.2221      8.3737      1.9401
O      4.7708      3.9447      0.1366
C     -0.3312      2.9825      1.1286
C     -0.2725      3.9743      4.2857
C     -5.6429     10.6799      7.4872
H     -3.4549      7.4969      6.7565
H     15.5985      9.2767     18.9756
H     -0.9176      9.7039      4.1434
H      0.8327      6.5533     -0.2895
O      0.0978      9.6104      5.8170
C     -6.8299     11.4297      8.0733
C      0.7153      7.2514      6.8018
C     15.0526      7.6741     14.1486
H     15.4849      8.1575     15.7871
C      0.4187      7.5073      2.9673
H     -3.9635     12.5769      9.3906
C      2.4002      0.5436      3.7398
C      0.2477      2.1982      7.8133
C     -2.9950     10.8111      5.9480
C     -2.6471      3.3657      5.2325
C     17.6598     12.3122     17.4541
C     -9.4546     17.3166      9.8654
C      0.7491      2.2277      1.2037
C     -1.5465      7.6917      1.5546
C     -9.0534     12.1745      8.7826
N      1.8624     -0.3905      4.3899
C      3.8667      1.3051      0.2608
O     16.8470      6.2484     15.5605
C      9.3790      6.3521     -0.2140
H     18.0071     10.6189     19.0206
H     -0.6122      1.1829      7.8689
C     -2.7479      4.7574      2.0869
C     -2.8380      7.8151      8.8575
H      1.5906      1.0181      7.0900
H     -5.1938     10.1389      9.4871
C     -2.0377      9.9291      0.6544
H      1.6593      7.8223      8.8592
H     -0.1556      9.4532      2.5014
H     14.7164      9.6252     11.0556
H      4.1145      0.2600      0.2161
H      0.9312      3.5521      9.4275
C     14.8648      7.4151     15.4983
H      3.8264      1.9530     -0.6060
C     13.8730      9.0013     11.1436
H     15.3676     10.1074     17.0957
C      4.3188      8.1556      4.3241
C      7.5579      7.1825      3.1971
C     20.5953      9.4351     14.3659
C     18.7404      8.3223     14.8813
C      4.1379      5.9780      6.3283
C      1.7643      4.9721      2.6313
C      6.1726      5.8065      0.1910
C      5.4544      7.4433      4.2318
C      8.2736      6.6445      0.5113
C      4.1373      4.6870      7.3300
C      1.4468      5.1223      1.1788
H     -2.8242      5.6863      5.9895
C      6.1919      6.7007      5.3052
H     -2.3589      2.5174      4.9747
H     -3.2494      5.7111      1.4597
H      0.9751      1.8741      0.2769
C      7.2244      5.7309      0.9666
H     -0.1508      3.2532      3.3970
O      7.3870      7.2659      5.9602
H      8.7064      9.6047     11.2609
H     20.6758      9.5578     15.4067
H      1.7690      2.7166      3.3081
H     -1.9292      9.4812      2.5628
H      3.2641      4.5709      0.7378
H      4.0602      5.8689      4.1777
C     12.4206      7.5493     11.5429
H      6.4801      5.8144      4.8452
C     15.4942      6.0893     16.0528
H      1.0018      6.3686      9.2737
C     -1.7768      4.4798      4.6429
C      0.2731      7.0387      5.3375
H     18.0083      8.0811     20.4276
H      1.8496      2.3454      5.2249
C      1.0658      5.8305      5.0539
H    -11.2023     11.5809      8.8575
H     15.5498     10.4225     15.5572
H     -0.4020      7.1894      8.6168
C     -4.9414      6.5371      8.6815
C     -8.7359     13.7499      8.5764
C      6.2127      7.4800      3.0387
C     -3.7103      9.6614      5.6573
C     -0.4037      6.2626      2.8616
C     -1.7433      6.5477      3.5441
H      4.3584      5.7964     -0.5537
H     -2.3454      3.3931      6.2400
C    -10.8597     13.6526      8.9898
C      0.5493      5.2973      3.6349
C      5.0978      3.9921      3.2030
H      1.3751      4.2315      8.1645
H     -4.3473      9.4729      8.1429
H     -2.3751     12.4471      7.3925
H     -5.6705     10.3487      6.4715
C      1.8394      6.8827      8.7165
C     -1.7350      5.6055      5.6364
C      2.2229      0.4928      2.2633
C      0.9371      4.7897      6.0024
C      1.9352      6.7253      7.2573
C      2.3770      4.7439      0.3341
H     -1.6775      5.2010      1.4830
H      4.0279      1.7371      1.9089
H      4.9648      1.7966      0.4406
H      5.1134      1.1022      3.4500
C     -0.4637      9.0627      4.9416
C     -4.0000      7.3860      9.4554
H      4.3973      5.9573      1.1326
H     -3.8812      9.0611      2.7055
C     -4.4590     11.7906      7.5772
H     -3.3480      3.8512      1.8083
H     -6.8683     14.8125      9.1211
C     -0.3203      7.7542      7.5723
C      0.2314      3.5957      5.4611
O      8.4056      5.2367      4.4013
C     -1.6903      8.1594      5.5124
C     -6.6448     13.7927      6.8744
C      5.2297      1.7948      6.4555
C      3.3438      0.3698      6.1554
H      6.9428      8.4274      5.6352
H     -5.7728     13.9082      6.2072
H     -8.2851     16.3441      8.7502
H      0.9773      9.9233      5.5226
H     18.1374     12.5687     18.2795
C      1.5070      4.9096      7.3566
H     -0.1549      3.9041      1.7009
C      3.6887      5.3981      5.0189
C     -9.4914     16.0049      9.1623
H     21.7757      9.0408     13.8898
C      8.0759      7.6709     10.6066
H    -10.0982     17.9429      9.3774
H     10.8396      6.4924     10.7627
H     -7.0890     12.8750      6.3548
C      3.7413      2.7627      4.6685
C     17.5064      9.9633     18.2872
C     -6.1582     12.6004      8.9076
C     -5.2418      9.6190      8.4815
C      5.3236      4.3613      8.0801
C     -6.9718     13.8468      8.5220
H     -0.5967      3.4631      9.6274
H      2.7263      3.0812      0.5422
H     19.0254      9.6952     13.1134
H     10.3324      5.5409     -0.3963
H     -0.3875      1.9554      5.5851
C     14.7270     10.0204     13.7522
H    -10.0724     17.4051     10.8904
H     -2.2079      9.4641      3.6069
