262

C      6.6471      9.0355      0.7954
C      4.2045     14.3940      6.8499
C     15.9074      3.4102     14.0826
C      7.0293     18.0773     15.3589
H     10.4664      3.0998      2.3310
C      7.5793     16.6400     15.8221
C      3.1504     17.1796      5.4977
C      6.4424     22.4741     10.6245
C      3.1544     19.9919      6.5677
C      6.2661     14.9393     17.3972
C      6.2320     21.3454      9.7966
C     13.8926      9.0127     13.8189
N     12.8391      3.0111      5.8523
C     13.6104      6.0040     13.4873
C      3.1775     17.0043      6.9400
H     13.0028      5.6756     12.6637
C      2.6819     19.2209      4.4699
C      3.8184     10.5835      3.3980
H      1.6019     14.1049     23.1906
H      9.6711      3.1228      4.1672
H     17.6428      5.1714     15.2394
H      5.5354     24.0953     11.8447
C      4.1373      9.2355      3.3710
H      7.1333     23.1415     10.2794
H      8.3903     16.3591     16.3752
H     13.0149      7.0400     11.2971
H     11.4975      5.6704      6.5911
C      2.9641     15.3909      7.1888
H     10.0725     10.3184     13.0945
H      6.9075     14.4966     18.0223
O     14.6419     10.4079     15.2746
C      8.1598     12.4234     21.6987
C      6.6991     19.0434      9.8002
H     13.7144      6.8388      8.9349
C      6.5351     15.7147     16.0975
H      6.4757     17.9063      7.4210
H      6.8349     22.1405     11.6548
H      5.0664     10.5211     21.6180
H      4.2262     20.4534      9.1195
C      3.8869     11.2080      4.6889
C      9.9692      8.5600     17.8618
O     14.8069      8.4223      5.1520
C     11.3263      7.6239      7.1318
C      8.5322      8.3158     12.1159
C      7.4741      7.9676      0.1842
C      6.2348     20.2459     12.2614
H     18.6412      3.6667     14.5221
H     15.8214     -0.8975     17.2443
H      7.9119      6.7271      7.8972
C      6.7953     20.0355     10.9368
C      7.6308      5.9621     16.2334
H      8.6162      9.4616      0.9417
C     11.6614      6.7958      5.0298
H      3.2483     21.2214      8.2455
H     17.8919      0.8098     15.2559
H      4.8524     24.1910     10.1490
H      3.3211     19.3395     13.3271
C      9.8322     11.8048     19.9698
C      5.7652     18.0987      9.3629
C      3.0096     20.5765      4.9536
C      4.4200     18.7866     13.4454
C      4.4710      8.9389      2.0920
H      9.1292      7.9027     17.9880
H      8.7473      7.7045     16.2755
H      4.4275     14.6665     23.0042
H      6.2226     12.5428     22.6888
H      4.6157     12.6896      3.7781
C     13.1107      2.8840      8.1909
C     13.2441      8.6633     12.4392
C     14.6494      1.9185      6.5663
C     12.5523      6.3371     14.3236
H      5.3457     20.9542     12.7097
H     10.7982      2.9253      5.5868
H      6.0433     16.8902     16.9854
H      4.1844     23.3084     11.1047
C      9.9042      7.6591     12.6288
O     14.9032     11.1844     13.1882
C      6.6777     21.2682      8.2365
C      3.6004     21.1820      7.2402
C      3.6348     14.3234     22.2505
C     16.3864      1.4767     17.5978
H     11.3395     10.5089     14.3332
H      5.9847     12.8314     19.6758
C     17.0617      3.5616     16.1211
H      8.3050      9.3841     18.7097
C     10.6541      8.6918     13.4735
C     11.1335      7.0206     11.7978
H     10.3008      9.8753     20.4871
C      5.5122     15.7729     18.2883
H      5.4515     12.0780      5.4721
H      8.4775     16.7998     14.9883
H      8.5388     13.0001     22.4721
C      2.3863     12.5449     21.4281
C      4.9308     11.3267     20.8263
C     10.6197      5.1712      3.1300
C      3.1091     22.6554      6.6971
C     15.7284      3.8040     15.4067
C      4.8798     21.1749      9.8418
H      1.6855     11.7925     21.6727
H     15.7392      7.7627     13.6916
H      9.9432      4.7127      1.2168
H     14.9499      3.7864     12.3580
O      5.4610     19.8232      6.4702
C     13.5098      8.2640      4.6133
H      2.6327     23.5001      7.1808
C     10.3298      8.7105     16.5910
C     10.9526      7.8484     15.7815
H      5.9993     22.2840      7.9791
C     10.3241      7.3156      7.7973
H     14.4217      2.6557      4.0998
H     15.5464      7.8348     11.5038
H      6.4312     14.7042     15.4032
H     13.8300      3.1362      8.8723
C     16.6694      2.0640     13.8303
C     12.9001      8.7608      2.1372
C     12.5476      3.9730      3.9262
C      7.2921     11.4894     19.7471
H     14.3302     -0.7362     16.9908
H      9.4243      7.0967      7.3012
H      2.3364     22.1992      6.1742
O     13.0441      9.3680      6.4874
C      6.2475     11.9351     20.4039
C     13.4572      6.9328      6.8223
C     14.8972      7.8404     14.1113
H     15.8158      8.3728     15.8780
C     13.5388      7.8675      3.0376
H      8.1465     11.3357     21.9029
C     15.7265      1.0098     16.3456
C     13.4540      2.4610      6.8881
C     10.3360     10.3412     19.4398
C     10.2340      3.3196      4.8192
C      4.6154     12.5169      4.8998
C      2.8498     16.4642     22.7004
C     11.6411      7.9952     14.3837
C      3.9563     12.2928     21.2941
N     15.1823     -0.3246     16.6431
H     14.9342      1.2159     13.6691
C     15.8387      1.0923     13.0658
O     17.0975      6.1103     15.5753
C      9.4207      6.5496     13.6138
H      5.0889     22.7510      5.9691
H     14.7265      1.2285      7.4127
C     10.3053      4.3677      2.2033
C     10.2340      7.3246      9.0354
H     14.7787      1.5182      5.5770
H      7.8202     17.7280     13.4472
H      7.4185     23.1587      7.7543
C     10.3398      9.9073     14.1112
H      4.1559     22.0377      9.9386
H     15.2188      6.0092      8.8394
H      9.9252      5.8997      5.8057
H     11.9758      9.7280      4.6035
H     14.1611      8.2292     10.5957
H     16.2141      0.0255     12.5616
H     13.1286      1.8064      8.9122
C     15.0373      7.6262     15.5004
H      4.9724     18.1874     10.3210
C     14.3845      8.6076     11.6072
C      5.4321     23.5918     10.9784
H      3.6997     16.8412     23.0965
H      4.0902     11.4426      2.8353
C      4.1886     21.3520      4.5763
C      7.7233      7.1864     15.7869
C      7.8740      9.7739      1.5573
C      5.8482      8.4681      1.8129
C      4.2868     19.0649      6.3176
C     14.6553      4.8517     15.5801
C      5.7428     19.0584     13.3153
C      5.5948     20.7049      4.2999
C      8.0738      6.8992     14.0313
C      4.2712     17.9262      7.4453
C     14.3918      5.0826     14.0474
H      8.5848      6.5602     17.7407
C      6.1856     20.4011      5.5857
H      9.4255      5.6539     12.8914
C      7.2389     18.4993     13.9387
H     12.3042      2.8736      3.6990
H     11.0410      7.0919      9.7550
O      7.4605     20.5018      5.8080
H      8.8955      9.4449     11.8080
H     15.1273      1.8731     15.9596
H     12.7922      9.6575      2.6701
H      4.2318     18.0086     14.0830
H      4.4061     18.5816      3.9946
C     12.3826      7.5364     12.0083
H      6.9111     17.4558     18.6053
C     15.5131      6.2107     15.9758
H     15.0566      7.7631      9.2794
C     11.0814      4.3332      4.3754
C     13.1927      6.9874      5.2418
H      4.0558     20.9784     10.5606
H      3.1823     12.9185      5.9415
C      1.3437     18.7808      4.9113
H     16.8030     -0.2734     14.8228
H     12.5168      6.5841      8.8711
C      7.8421      6.4548      8.9536
C      4.4745     13.7016     21.0778
O      6.1052     17.2212     17.9941
C      6.3354      8.0734     15.9469
C      9.4578      9.8381     18.4114
C     12.6029      6.3896      2.9081
C     11.2830      6.5992      3.5620
H      4.6996     21.2114      7.3699
H     14.6987      9.4214     11.3476
H      9.4583      3.9967      5.6227
C      2.4166     13.5373     22.5436
C     13.6525      5.3704      3.5391
C     18.3037      3.6057     15.5315
H     13.7867      4.6660      7.6214
H      8.8038     21.7810      7.4351
H     10.6001     12.9056     19.9693
H      6.9931     11.0656     18.9104
C     14.7265      6.9116      8.6584
C     10.8668      5.5494      5.5720
C     16.8561      0.7669     15.2600
C      1.5930     17.4628      5.3955
C     14.7684      6.4536      7.1044
C     14.9916      4.1282     13.2664
H     11.9023      5.7541     13.7558
H     17.6995      1.8733     13.4938
H     15.6272      1.5843     12.0496
H     11.3072     10.8042     19.2251
H      5.6479     14.1627     17.2653
C     12.3102      9.0675      5.2915
C      8.9360      7.0991      9.6283
H      7.8747     10.7067      1.5150
C      8.5446     11.9629     20.4379
H     10.1624      6.4901     14.4717
H      8.7999     10.3811     17.6865
H      6.2601     14.5735     22.4935
C     12.4230      7.0172      7.7546
C     13.7357      3.4694      4.7954
O      8.3843      5.7014     17.4694
C     11.2158      8.0138      5.6351
C      6.5790     15.0420     20.2554
C      5.3440     15.1827     19.5900
C      3.9257     13.6032      5.6743
H      6.3705     20.5722      7.2093
H      5.9925     16.5687      8.4297
H      8.3784     22.5325      8.8230
H     13.6347      9.8627      6.0235
C     14.7401      4.7935      7.0257
C      3.9194     18.5700      5.0676
C      3.0919     15.5162     21.7545
H      7.6839      9.4670      2.5802
C      8.2376      7.1104     11.0728
H      3.9499     18.4151      8.6979
H     10.8397      6.1764     11.0131
C     16.9819      2.8959     17.7024
C      4.1035     22.9574      5.5164
C      6.6438     12.6117     21.7098
C      7.9856     21.9951      7.9978
C      5.7495     17.5455      8.0270
C      6.0665     14.0203     21.4584
H     12.1521      3.4991      8.2356
H      9.6429     11.9881     18.9253
H      6.3820      9.7165     -0.0215
H      8.8437      6.0577     11.5242
H     12.0010      3.7277      6.3037
C     14.6498     10.2566     14.0821
H      2.5493     17.5304     22.3339
H     10.2024      9.7565     16.4548
