260

C     19.4721     -3.6350      0.8502
C      3.9713      1.4890      6.9110
C      2.7313      3.3071      1.3665
C      7.5954      4.8275      2.4480
H     -2.7278      3.4861      2.0928
C      7.5293      3.5026      3.0443
C      3.1842      4.1560      5.2707
C      6.7834      9.6427     -2.5927
C     15.9480     -5.7180      6.3873
C      6.1534      1.6634      4.1974
C      6.3750      8.3014     -3.1797
C     13.4736     -3.9283      0.6694
N     -0.3451      3.2558      6.3499
C     13.4560      6.0251    -12.1320
C      3.4167      4.1241      6.7663
H     13.5287      6.7422    -13.0263
C     15.5034     -6.7205      4.3192
C     16.6007     -2.2982      3.4958
H      1.4878      0.5312      9.9500
H     -2.4333      2.7691      3.4524
H     17.6776     -6.9547      2.6907
H      6.9403     11.3047     -2.4783
C     16.6815     -3.6725      3.1619
H      7.8126      9.8630     -2.8895
H      7.2201      3.6993      3.9796
H     12.1318     -5.1295     -2.4702
H     -1.5657      4.9837      6.5951
C      3.1028      2.7077      7.3562
H      9.5162     -2.5743      0.6676
O     14.5515     -2.5823      2.1364
C      8.1852     -0.0032      8.5689
C      6.8667      5.9925     -3.1608
H     15.5158     -2.0611      3.8955
H     14.2213      5.7461     -3.9480
C      6.4095      2.4144      2.8648
H      6.3568      5.1489     -5.7362
H      6.7507      9.1976     -1.6256
H      4.6273      6.9091     -2.3178
C     17.5358     -2.1822      4.7191
C      9.8718     -4.3634      5.0634
O     15.0011      8.6433     -8.2139
C     11.3617      7.9755     -5.5588
C      8.9769      8.1550     -0.8592
C     20.1932     -4.9867      0.2439
C      6.3867      7.1700     -0.6364
H      5.4467      3.5617      1.2289
H      1.5463     -0.3894      4.5273
H      8.1764      5.5209     -4.9912
C      6.9746      7.1691     -2.1154
C      7.6431      5.8334      3.3763
H     21.3652     -3.1194      1.6680
C     -1.1965      6.8140      5.0739
H     15.1142     -4.5185      7.7491
H      4.5265      0.6437      2.3707
H      5.2343     11.1347     -2.9055
H      4.2063      6.4493      0.2918
C      9.7728     -1.1103      7.2158
C      5.7590      5.5085     -3.6465
C     15.9040     -5.2644      4.9609
C      4.8360      5.6737      0.5655
C     17.4844     -3.7592      2.0785
H      9.2583     -5.2123      5.6272
H      8.4098      7.4744      3.8247
H      3.9000      1.0626     10.2284
H      6.7430     -0.0256      9.9570
H     17.6265     -0.1988      4.2250
C      0.1244      2.4682      8.8634
C     12.9905     -4.4056     -0.7415
C      1.6778      2.1620      6.7933
C     12.3512      6.2687    -11.4136
H      5.2379      7.7076     -0.6410
H     -1.8139      2.2616      5.4133
H      5.8136      4.4211      6.0486
H      5.8300     10.8076     -1.1733
C      9.9380     -5.2263     -0.1159
O     14.7038     -1.9064     -0.1581
C      6.8711      8.3278     -4.5668
C     16.0672     -4.5113      7.2575
C      3.5381      1.2456      9.0904
C      3.3009      1.4663      4.7613
H     11.2159     -2.3060      1.2477
H      5.9777     -0.1617      7.3140
C      4.0534      3.2951      3.0662
H      8.5065     -3.0519      5.0914
C     10.8249     -4.1842      0.4985
C     10.9440     -6.0645     -1.1270
H     10.2708     -3.3790      6.7729
C      5.5302      2.6637      5.1006
H     18.1482     -0.0686      5.6274
H      8.5775      3.3517      3.2997
H      8.6280      0.8105      7.9611
C      2.3525     -0.8418      8.2484
C      4.7275     -1.7823      8.1949
C     -2.5167      5.1600      3.4725
C     16.1404     -3.2479      6.5251
C      2.8469      4.0493      2.6054
C      4.9206      7.7855     -2.7257
H      1.7401     -1.7061      7.7265
H     15.9380     -4.0128      1.3289
H     -3.3199      4.8577      1.6045
H     15.1163      3.8816    -13.4566
O      5.2943      6.9659     -6.2181
C     13.5736      8.1497     -8.1925
H     16.3840     -2.3569      7.3781
C     10.1610     -4.2963      3.4782
C     10.9810     -5.1730      2.7996
H      6.2391      9.0466     -4.9667
C      9.9214      7.5904     -4.9447
H      1.2652      2.7926      4.5444
H     14.3921     -5.0893     -2.5633
H      6.4590      1.4251      2.3699
H     -0.4346      1.6553      8.9026
C      3.4256      1.9046      1.0078
C     12.8037      8.5909    -10.9651
C     -0.4527      4.1716      4.0537
C      7.4547     -1.7476      7.1551
H      1.9024     -0.8035      2.8975
H      9.5106      6.5068     -5.5226
H     15.5361     -5.0644      0.1342
O     13.1630      9.4709     -6.7370
C      6.2189     -1.1230      7.9149
C     13.4001      6.8346     -6.2548
C     14.8416     -4.6923      0.9323
C     13.5085      7.7538    -10.0818
H      8.8180     -0.2472      9.3924
C      2.6429      1.0889      3.4900
C      0.4399      2.7948      7.3318
C     10.3642     -2.3880      6.4550
C     -2.3963      3.0319      4.5997
C     17.9097     -0.9276      4.9949
C      2.5191      3.6057     10.0223
C     11.5650     -4.9532      1.4606
C      3.7844     -0.9195      8.0538
N      1.9718     -0.2054      3.6640
H      1.7742      1.8537      0.3604
C      2.7017      1.5876     -0.1669
O     17.2917     -6.0698      2.5788
C      9.5622      6.3951      0.8118
H     18.0171     -3.9266      6.1709
H      1.4178      1.0555      7.0431
C     -2.4287      4.5461      2.2323
C      9.8827      7.6813     -3.5799
H      1.8678      2.1733      5.6256
H      7.8990      5.2851      0.3775
H      8.2271      9.3642     -6.0832
C     10.4922     -2.8455      0.7306
H      4.3152      7.6876     -3.7010
H     15.7167      6.7961     -3.8045
H     -2.9756      5.7336      5.5286
H     12.2828      9.8509     -8.5369
H     13.8176     -3.4467     -2.2864
H      2.6586      0.4416     -0.5773
H     -0.3970      3.5272      9.1894
C     14.8473     -5.2790      2.2941
H      4.9327      5.2033     -3.1307
C     14.1219     -4.2096     -1.7208
C      5.9949     10.8039     -2.3101
H      2.2952      3.0285     11.0601
H     17.4765     -1.5472      2.8558
C      4.2205      8.3955     -8.3719
C      7.6249      7.1602      2.8521
C     20.5007     -2.7909      1.3979
C     18.8920     -4.1031      2.1172
C      4.4133      6.1244     -6.7569
C      1.4772      4.7269      2.4337
C      6.2021      5.9478      0.3446
C      5.5654      7.8484     -8.5064
C      8.0848      6.8301      1.1200
C      4.3687      5.0751     -5.7178
C     14.2662      4.9207    -11.7995
H      8.3809      6.1756      4.9259
C      6.1267      7.4662     -7.2645
H      9.5022      5.7514     -0.0596
C      7.3152      5.4446      1.1004
H     -0.3784      3.1369      3.9032
H     11.0476      7.2077     -3.3255
O      7.3332      7.3025     -6.8559
H      9.2248      9.0789     -1.4999
H      2.1556      2.0621      3.5516
H     12.5604      9.5338    -10.5761
H      4.2824      4.9300      0.9244
H      4.6986      5.3415     -8.7256
C     12.1348     -5.1912     -1.3828
C     16.0204     -6.5025      2.5736
H     13.8145      7.0495     -4.2950
C     -1.8379      4.4036      4.5458
C      0.2905      6.7406      5.3053
H      4.7241      8.4367     -1.9392
H      2.6927     -0.1607      6.0354
C      1.2846      5.5564      4.5688
H      3.2925      0.0621      1.7807
H     12.2894      5.9548     -5.0680
C      7.9869      5.9743     -3.9639
C      4.3143      0.5924      8.1626
O      6.3176      4.0031      5.3449
C      6.4458      8.0265     -9.8180
C      9.6297     -2.7709      5.2155
C     12.7130      6.3068    -10.0304
C     -1.5128      6.6694      3.6168
H     16.8319     -4.5017      8.0283
H     15.0036     -4.3982     -1.3286
H     -3.3642      2.8290      4.9017
C      2.4278      0.2472      9.4424
C      0.5830      5.1031      3.4229
C      5.2499      3.2733      2.3542
H     14.0999      4.2314     -5.1293
H      9.2093      8.3354     -5.2778
H     10.2608     -0.7688      8.0920
H      7.8300     -2.2096      6.2741
C     14.7496      6.5170     -4.2435
C     -1.7886      5.4254      5.6729
C      3.5261      1.0261      2.3073
C      1.5125      4.4074      5.6389
C     14.7657      6.1763     -5.8721
C     15.3809      4.3792    -12.5554
H      3.2272      2.2598     -0.6220
H     11.6996     -2.2482      6.3675
H      5.6992      0.6089      3.9790
C     12.4145      8.9005     -7.8855
C      9.0135      6.7154     -3.2372
H     17.4758     -4.9093      2.0798
H     20.5792     -2.2388      0.5091
C      8.3684     -1.0753      7.6377
H     10.1694      6.7131      1.8522
H      9.6692     -1.9573      4.5794
H      5.8797      1.9179      9.2766
H     15.3923     -1.2177     -0.2961
C     12.3344      7.0470     -5.2838
C      0.4689      3.5258      5.0111
O      8.4458      5.4596      4.3762
C     11.4094      8.2218     -7.1803
C      6.4092      1.9419      7.2517
C      5.3917      2.1667      6.4720
C      3.3053      0.6351      5.8520
H      6.9977      7.3748     -5.0284
H      5.5801      3.4663     -4.9947
H      8.6802      9.8861     -4.3572
H     13.0949      8.6032     -6.1829
C     14.8388      4.7843     -5.9404
C      3.7405      5.4376     -7.9695
C      2.9546      2.7036      9.0295
H     20.2543     -1.8825      2.1758
C      8.3432      7.0673     -1.7594
H      3.8330      5.4667     -4.9070
H     10.8760     -6.8540     -1.7921
H      7.4323      2.4358      7.5657
C      3.8909      2.8554      4.6455
C     17.3542     -3.3282      5.5658
C      6.6965     -0.0461      8.8073
C      8.0768      8.9346     -4.9115
C      5.7094      4.5684     -5.0154
C      5.8247      1.0938      8.3339
H      1.0755      2.2468      9.2506
H      9.2761      8.2447     -2.7394
H      9.6121     -0.1245      6.7588
H     18.8594     -2.7989      0.3175
H      8.3765      6.0312     -1.4357
C     14.3101     -2.7155      0.8167
H      2.5352      4.5284      9.8434
H      9.2495     -3.6708      3.1136
