262

C     19.5655      8.9798     13.9001
C      4.2101      1.8237      6.9735
C      2.8376      3.0553      1.3680
C      6.8782      4.7225      2.2535
H     -3.4299      3.5579      2.8906
C      7.3291      3.4421      2.6852
C      3.0962      4.2475      5.5345
C      6.5996      9.7535     10.5504
C     16.0889      7.3007     19.2583
C      6.2964      2.1198      4.3832
C      6.1867      8.4180     10.0266
C     13.8481      9.0174     13.9154
N     -0.1037      3.3636      6.3875
C     13.6372     -7.0273      0.6551
C      3.0667      4.2630      7.0303
C     15.4670      6.4469     17.3051
C     16.3922     10.5929     16.5630
H     -2.7992      3.0878      6.1954
H      5.5683     11.1562     11.6009
C     16.8005      9.1753     16.2125
H      7.0469     10.6245      9.9355
H      7.7223      3.4897      3.6040
H     12.8734      7.2653     11.1404
H     -1.2341      5.0515      6.5641
C      2.8208      2.9071      7.5362
H      9.8163     -2.4860      0.5810
H      7.3702      2.0675      4.3195
O     14.2714     10.9461     15.1022
C      8.0918     -0.0935      8.7521
C      6.8743      6.1122      9.7302
H     15.7571     -6.0221      9.6088
C      6.2329      2.4691      2.7788
H      6.4533      4.1957      7.2758
H      7.2323      9.7543     11.4435
H      4.7423     -2.3147      8.6256
H      4.1209      7.6198      9.5992
C     17.5807     10.8656     17.3973
C     10.0645     -4.5248      5.0024
O     14.6513     -4.3381      4.7792
C     11.2784     -5.2497      6.9776
C      8.7321      8.3602     12.2613
C     20.3576      7.9454     12.9603
C      6.2870      7.2414     -0.8569
H      5.1112      3.7044      1.4440
H      1.2773     -0.7753      3.6093
H      8.4047     -7.5827      8.5510
C      7.0018      7.1440     10.8498
C      7.7099      5.6155      3.0884
H     21.5824      9.3510     14.8707
C     -1.1437      6.5539      4.9690
H     15.7337      9.3994     20.5041
H      4.3207      0.8192      2.9318
H      5.0375     10.9184     10.0832
H     14.6690      7.3082     13.5657
C      9.8851     -1.1208      7.2722
C      5.6562      5.3360      9.5405
O      4.8711      3.2652     10.4002
C     15.8644      7.8180     17.8749
C      4.4049      6.1021     -0.0463
C     17.3852      9.2878     14.8957
H      9.1038     -5.1609      5.0677
H      8.4261      7.7021      3.1315
H      3.6401      1.5573     10.4632
H      6.1929     -0.3728      9.7097
H     17.6296     12.6354     17.1837
C     -0.0161      3.3059      8.6675
C     13.4572      8.4469     12.4974
C      1.6458      2.1094      7.1933
C     12.2874     -6.5807      1.2777
H      5.2601      7.7725     -1.1817
H     -3.1197      3.4546      4.6122
H      5.5811      4.5029      4.1763
H      4.5749      9.6504     11.7422
C     10.0173      7.9508     12.9583
O     15.1949     11.0076     13.2685
C      6.1438      8.3806      8.4090
C     16.2805      8.6314     20.0170
C      3.4678      1.4086      9.3956
C      3.4060      1.7897      4.7600
H     11.4772     -2.3928      1.5734
C      3.9760      3.6045      3.1050
H      8.6028     -2.4787      5.6811
C     10.9220     -4.2423      0.7318
C     11.0635      7.1090     11.8123
H     10.0959     -3.2790      7.7150
C      5.3740      2.9921      5.1566
H     18.9763     12.0752     18.4566
H      8.3809      0.7025      8.1779
C      2.7272     -0.7275      8.8044
C      4.8599     -1.7420      7.8546
C     -2.3148      5.1226      3.5592
C     16.5655      9.8678     19.0016
C      2.4681      3.4869      2.6883
C      4.7379      8.2529     10.1547
H      1.7701     -1.3960      8.9227
H     16.0520      8.5601     14.3314
H     -3.7983      5.4014      2.4534
H     15.1599     -8.4509     -0.4694
O      5.3056      7.0704      6.3674
C     13.5141     -4.7733      4.4216
H     16.8442     10.6172     19.8658
C     10.4294     -4.1532      3.5511
C     10.9396     -5.2153      2.8850
H      5.2281      9.1034      8.3995
C     10.0376     -5.2605      7.5890
H      1.2139      2.4066      5.1266
H     14.6410      7.0728     11.4294
H      6.8207      1.6650      2.1364
H      0.8003      3.9258      9.0868
C      3.3141      1.5292      1.2709
C     12.8041     -4.2953      2.0989
O      6.5291      4.5616     11.2187
C     -0.1990      4.0661      3.9416
C      7.5853     -1.9518      7.5337
H      2.2362     -0.7547      5.0324
H      9.3247     -4.5905      7.1682
H     15.4931      9.8730     18.7060
H     13.7495     -6.8601     -0.5227
O     13.1527     -3.6867      6.4494
C      6.2088     -1.0760      7.7987
C     13.5180     -6.0585      6.7006
C     15.0066      8.1148     14.1641
H     15.7681      8.6686     16.1604
C     13.4945     -5.3126      3.0178
H      8.6570     -0.4665      9.4951
C      2.6251      0.8600      3.8246
C      0.2946      2.5411      7.4636
C     10.4060     -2.5575      7.0119
C     -2.1850      3.2835      5.2097
C     18.2044     12.0011     17.6997
C      2.9655      3.7815      9.8923
C     11.6921     -5.0870      1.6657
C      4.0735     -0.5303      8.1734
N      1.8939     -0.2341      4.1796
H      2.2197      1.7778     -0.8932
C      2.8039      1.0912     -0.0305
O     16.9965      5.7639     15.0736
C      9.3530      6.7527      1.1249
H     18.2095      9.4958     18.9881
H     -0.2689      1.3250      7.7055
C     -3.0819      4.5731      2.5910
C     10.0534     -4.8633      9.0521
H      1.6517      1.5957      6.1113
H      7.9086      4.7960      0.3622
H      7.0462      8.6548      6.2880
C     10.5441     -3.0066      1.0578
H      4.6090      9.1560      9.7808
H     14.4132     -5.2655      8.8961
H     -2.8314      5.5054      5.8174
H     12.1331     -2.9365      4.9949
H      2.2157      0.2188     -0.3737
H     -0.8016      2.9495      9.2655
C     14.8443      7.3294     15.4191
H      4.9019      6.1385      9.4898
C     14.6752      8.0934     11.7809
C      5.4453     10.3325     11.0668
H      2.8209      3.4277     10.8874
H     16.0871     10.9438     17.2797
C      4.2698      8.3329      4.3989
C      7.5914      7.1078      2.5681
C     20.5582      9.7395     14.6072
C     18.5820      8.5382     14.6616
C      4.0829      6.2001      6.3590
C      1.7504      4.7938      2.7776
C      5.7844      6.1522      0.0569
C      5.5074      7.3575      4.0523
C      7.7376      6.7981      1.0935
C      4.1634      5.1429      7.5432
C     14.4580     -8.0084      1.2886
H      8.7137      5.9834      4.4524
C      6.2523      7.1511      5.3634
H      9.6723      5.8446      0.2013
C      7.0069      5.3249      0.7794
H     -0.8326      3.2389      3.3909
H     10.6874     -4.9844     10.0538
O      7.4864      7.3839      5.4686
H      8.5887      9.3797     12.0960
H      2.0634      2.4041      3.4143
H     12.3239     -3.4619      2.4949
H      4.1650      5.4572      4.0948
C     12.4028      7.6261     11.8785
C     15.8310      6.1143     15.8256
H     14.3000     -6.6706      9.4526
C     -1.5471      4.4286      4.6033
C      0.3228      6.7522      5.2974
H      4.3119      8.6099     11.0704
H      3.6599     -0.0440      5.9160
C      1.0491      5.7948      4.6019
H      2.8735     -0.2418      2.3092
H     16.3263     11.1755     15.6143
H     11.9300     -5.9914      8.4806
C      8.0631     -6.6604      9.0522
C      4.5032      0.8315      8.3393
O      6.0780      4.2352      5.0362
C      6.1949      7.7476      2.7498
C      9.7062     -2.9742      5.4850
C     12.7382     -6.7527      2.6855
C     -1.5265      6.3914      3.4821
H     16.9818      8.3738     20.7976
H     15.9252      8.2367     12.2473
H      3.9717      6.9567     -0.3571
H     -2.0811      2.4542      4.2526
C      2.4177      0.4594      9.2840
C      0.4454      5.1596      3.3897
C      5.0041      3.3109      2.4134
H     13.9509     -8.2803      7.6000
H      8.1604     -4.4938      9.2581
C      5.5383      4.3175     10.4943
H     10.3069     -0.6734      8.1241
H     13.3572     10.6044     15.4688
H      7.3948     -2.4562      6.5245
C     14.9925     -6.0572      8.6896
C     -1.7679      5.4612      5.6465
C      3.2801      0.6996      2.5052
C      1.5195      4.6691      5.5336
C     14.8710     -6.3813      7.0808
C     15.4329     -8.7895      0.5784
H     11.6263     -7.4845      0.9565
H      4.6257      1.3071      0.9798
H      3.6717      0.7601     -0.5911
H     11.4997     -2.7265      6.8471
H      6.0414      0.9073      4.1177
C     12.5743     -3.9149      5.1145
C      8.7309     -5.5392      9.5644
H     17.0241      6.6528     14.4600
H     20.6881     10.3222     13.6007
C      8.5697     -1.1675      7.7024
H     10.0093      6.9437      2.1270
H     10.3023     -2.3579      4.9333
H      5.8582      2.2302      9.2356
C     12.4322     -5.6178      7.6123
C      0.6405      3.4125      5.1806
O      7.8278      5.4311      4.4226
C     11.3841     -5.1093      5.5669
C      6.5265      2.0314      7.5748
C      5.4419      2.6383      6.5387
C      3.7144      1.1080      5.8971
H      5.9944      7.2251      8.3580
H      5.1788      3.7480      8.3781
H      8.2130      8.8086      7.6076
H     12.5347     -4.0503      7.1357
C     14.6669     -7.9893      6.9375
C      3.7004      5.6045      5.0526
C      3.1916      2.7717      9.0184
H     20.2971      9.9340     15.5026
C      8.4747      7.3504     11.1184
H      4.2166      5.9406      8.4292
H     10.2567      6.2389     11.5446
H      7.5991      1.5610      7.3365
C      3.9430      3.1496      4.5608
C     17.6403      9.4024     18.1195
C      6.6516     -0.1611      8.8671
C      7.1085      8.7947      7.6034
C      5.4382      4.5649      8.0929
C      5.9682      1.2621      8.5229
H     -0.4005      4.2884      8.2699
H      9.7175     -3.8201      9.1162
H      9.9671     -0.6356      6.2885
H     19.6809      9.8404     13.0235
H     -0.6914      3.9912      6.9307
C     14.4312     10.3512     13.8555
H      9.4202     -3.7390      2.8259
