262

C      6.8946      8.9784     13.6361
C      4.1089      1.3641      7.0282
C      2.1983      3.0024      1.4861
C      6.6749      4.7647      2.1279
H     -2.9475      3.9182      2.6140
C      6.9911      3.2925      2.5625
C      3.4366      3.9959      5.6522
C      6.7442     -3.1810     10.3560
C      3.0817      7.3668     19.5053
C      6.1772      1.7735      4.0304
C      5.9387     -4.0204      9.4557
C      1.1025      8.6985     13.7434
N      0.2340      2.8119      6.3611
C     13.3773     -6.9735      0.6812
O     -1.6763      2.4802      1.6099
C      3.5901      3.8106      6.9756
C      2.7172      6.3651     17.5213
C      3.5528     10.7154     16.9942
H      1.3141      0.6891      9.8276
H     -3.7116      3.5965      4.2611
H      3.8733      6.5341     14.6906
C      3.9076      9.2688     16.2838
H      7.2041     -2.6326      9.7618
H      7.7863      3.3610      3.6249
H     -0.4621      7.3821     10.7358
H     -0.8853      4.9610      6.3483
C      3.1650      2.7445      7.7599
H     11.2018     -2.7897     -0.7452
H      6.9004      1.0628      3.9264
O      1.8895     10.7970     14.6977
C      8.1210     -0.1513      8.6101
C     -6.0016      5.7381      9.5758
H      2.4501      6.5766      9.7293
C      5.8289      2.5080      2.5933
H     -6.5349      5.1184      7.1845
H      7.2149     -3.7662     11.3495
H      4.6158     -2.6833      8.4044
C      4.8118     10.9466     17.8840
C     10.0057     -4.6331      5.0914
O     14.7861     -4.1130      4.9880
C     -1.5745      7.9116      7.2906
C     -4.2427      8.0615     12.0497
C      7.4533      7.7896     12.8870
C      6.4096      6.9956     -0.8794
H      4.5138      3.9971      1.7613
H      5.0397     10.2804     14.6287
H      1.4676     -0.5820      2.6774
H     -4.9294      6.1319      7.6455
C     -5.6012      6.3457     11.0470
C      7.6340      5.4992      3.0104
H      8.6371      8.8235     14.4694
C     -1.1966      6.6170      5.2347
H      2.6651      9.2802     21.0313
H      4.3228      0.0459      2.0201
H      2.2360      6.8153     13.5449
C      9.9015     -1.2628      7.3196
C     -7.1394      5.1840      9.2034
C      2.9176      7.8105     18.0232
C      4.6296      5.6957      0.3669
C      4.8068      9.4072     15.1465
H      9.4459     -5.3956      4.9576
H      8.4157      7.7079      3.2446
H      3.4018      1.8144     10.8047
H      6.4217     -0.6828      9.7190
H      5.9644     12.4970     17.0687
C      0.1338      3.7354      8.8041
C      0.6839      8.2170     12.4399
C      1.9678      1.9467      7.8728
C     12.3043     -6.6210      1.6120
H      5.9087      7.7858     -1.5401
H     -2.2494      2.5279      4.0106
C     -2.9523      7.7007     12.8878
O      0.8315     10.8133     12.6766
C      6.0522     -3.9650      8.0531
C      3.3734      8.5590     20.4044
C      3.2244      1.5685      9.8855
C      3.1422      1.4654      4.8579
H     12.4777     -3.1046     -0.2671
H      5.9326     -0.4154      6.7517
C      3.5534      3.4582      3.3816
H      9.1838     -3.5635      6.7142
C     10.9161     -4.2717      0.5322
C     -1.8153      7.3036     12.0960
H     10.7416     -2.5941      7.6340
C      5.2468      2.3457      5.1504
H      4.6347      0.1952      5.6696
H      8.4889      0.9366      8.5300
C      2.7271     -0.3689      8.8068
C      4.7439     -1.7163      7.8998
C     -2.2368      5.4258      3.4954
C      3.6374      9.7867     19.5167
C      2.1408      3.5677      2.8615
C      4.9594     -4.9390     10.0043
H      2.4485     -0.6960      9.9668
H      3.0562      8.5845     13.8371
H     -3.8159      5.3806      2.0436
H     14.8743     -8.8035     -0.5579
O      5.4422      6.7089      6.5775
C     13.3717     -4.7387      4.6035
H      4.3228     10.6376     19.8706
C     10.2323     -4.1853      3.7572
C     10.9984     -5.0492      2.9200
H      5.6325     -4.8944      7.9240
C     -2.7063      7.3659      7.7945
H      2.0693      1.6788      4.8962
H      1.1196      8.7074     10.2449
H      6.0538      1.8340      1.9491
H      1.1356      4.3941      9.3511
C      2.8743      1.7515      1.1306
C     12.9025     -4.1983      2.1185
C     -0.7857      3.1793      1.3946
C     -0.2368      4.1619      4.1350
C      7.4336     -2.0477      7.0778
H      1.8966     -0.6065      4.5514
H     -3.7700      7.5234      7.4679
H      2.8940      9.9455     18.6473
H     12.9874     -7.1189     -0.3536
O     12.8296     -3.2728      6.1437
C      6.1805     -1.2236      7.5200
C      0.6250      7.2188      6.9167
C      2.2602      7.8899     14.2230
C     13.4474     -5.0593      3.1515
H      8.9813     -0.3776      9.1617
C      2.8823      0.5021      3.5143
C      0.4686      2.6420      7.9080
C     10.6137     -2.3793      6.5992
C     -2.7157      3.4311      4.7223
C      5.7456     11.8859     17.8624
C      3.2455      4.0751      9.9184
C      0.6078      2.5012      1.1992
C     11.7692     -5.0127      1.5376
C      4.1898     -0.6011      8.6505
N      1.9841     -0.3259      3.6059
H      3.8709      2.2315     -0.5814
C      3.1036      1.5103     -0.4896
O      3.8690      6.4157     15.5951
C      9.4413      6.6807      0.7649
H      5.7714      9.3780     19.0830
H      0.1303      1.7554      8.4912
C     -2.9761      4.9321      2.5514
C     -2.6423      7.3060      9.1870
H      1.6560      1.3009      6.9431
H      7.5201      4.7191      0.0984
H      7.3621     -3.7316      6.4099
C     11.5024     -3.0993      0.1051
H      3.9506     -5.3448      9.6926
H      2.3472      8.0901      8.4451
H     11.4783     -3.3279      4.2157
H      1.6249      9.4599     11.7340
H      2.2913      1.7853     -1.0004
H     -0.8361      3.3719      9.3098
C      1.9881      7.3810     15.5191
H     -8.2199      4.8307     10.0003
C      1.4058      8.4846     11.3817
H      3.0473      4.1000     11.1337
H      2.6882     10.6437     17.6202
C      4.6106      8.5363      4.5318
C      7.5631      6.9831      2.5772
C      8.0569      9.6048     14.2276
C      5.8727      8.7376     14.9973
C      4.0777      6.2097      6.5374
C      1.6806      5.0259      2.6913
C      5.9871      6.0120      0.0683
C      5.5615      7.4504      4.2952
C      8.0122      7.0862      1.1402
C      4.1189      5.0900      7.5793
C     14.1908     -7.8574      1.1507
H     -2.4712      4.7752      6.2124
C      6.0977      6.8822      5.5156
H      9.4653      5.5849      0.3611
H      0.7538      1.7778      1.8978
C      6.9942      5.3741      0.8052
H     -0.0587      3.3331      3.3082
H     -1.6824      7.0181      9.6003
O      7.5079      6.8131      5.7633
H     -4.1788      9.1822     11.7719
H      1.6004      3.0467      3.7691
H     12.7877     -3.1292      1.8124
C     -0.6245      7.4652     11.9028
C      2.5476      6.2424     16.0985
H      0.8492      6.5376      9.1069
C     -1.6852      4.5245      4.4590
C      0.3879      6.9903      5.3581
H      4.7127     -4.6082     11.0082
H      2.8137     -0.1853      6.1444
C      1.3360      5.8708      4.9622
H      2.6953     -0.5283      1.5218
H      3.5543     11.6088     16.3367
H     -0.0167      8.2165      8.7674
C     -4.9470      6.0831      8.6467
C      4.5384      0.9405      8.5041
C      6.0756      7.4302      2.9208
C      9.6880     -3.2615      5.8895
C     12.7652     -6.5078      2.9051
C     -1.4838      6.7289      3.8367
H      4.0367      8.0307     21.1025
H      4.2221      6.5970     -0.2070
H     -2.9574      3.0927      5.6913
C      1.9966      1.0551      9.0663
C      0.6141      5.3225      3.6504
C      4.6685      3.4126      2.5662
H      1.9891      4.6118      7.9263
H     -5.5042      8.1970     10.1843
H     10.7783     -0.4226      7.6158
H      7.6127     -2.0637      6.0987
C      1.8843      6.9780      8.8789
C     -1.5391      5.3257      5.6356
C      3.2073      0.4796      1.9249
C      1.2876      4.8103      6.0596
C      2.0256      6.6895      7.4056
C     15.1750     -8.7205      0.5144
H     11.4771     -7.1361      1.0906
H      4.0328      2.0798      1.2984
H      3.5519      0.4323     -0.6065
H     11.5192     -2.0332      6.2599
H      5.2924      1.2047      3.4594
C     12.2108     -3.9123      5.1273
C     -3.9160      6.7440      9.5621
H      4.8376      5.2845      1.3442
H      8.6390     10.2208     13.8772
C      8.6129     -1.1478      7.5376
H      9.8530      6.8215      1.8352
H      8.9564     -2.8088      4.9743
H      6.3228      1.3544      9.9953
C     -0.3713      7.5907      7.8505
C      0.2727      3.8625      5.6088
O      7.9418      5.4184      4.3517
C     11.1896     -5.0388      5.8277
C      6.5398      1.6991      7.5634
C      5.3586      2.1771      6.5870
C      3.5024      0.5087      6.0332
H      7.5206      7.3164      6.8172
H      7.2362      2.6013      7.4051
H     -7.1293      3.6352      7.5203
H      8.2957     -3.5983      8.0527
H     12.3659     -3.3154      6.9909
H      6.7204     11.7058     18.2903
H      1.9086     -1.1233      8.4332
C      1.8402      5.2459      7.1853
H     -1.0661      4.2321      1.1596
C      3.6523      5.4347      5.1025
C      3.4249      2.9706      9.2059
H      8.3408     10.0234     15.2601
C     -4.7303      7.3249     10.6250
H      4.0857      4.9401      8.4850
H     -2.3448      7.1333     11.1574
H      7.3492      1.1823      7.4255
C      3.8675      2.8627      4.6801
C      4.8180      9.4568     18.4591
C      6.7346     -0.2700      8.8272
C      7.3074     -3.5122      7.3540
C     -7.0553      4.5669      7.9619
C      6.0525      1.1228      8.8101
H     -0.4792      4.2366      7.8323
H     -2.4010      8.3691      9.3833
H      0.3697      2.1546      0.3813
H      6.1781      9.3897     12.9641
H     -5.0429      5.4518     11.2703
H     -0.0813      1.7563      6.1317
C      1.4728     10.1229     13.6797
H      2.7898      4.8802      9.4054
H      9.7070     -3.3789      3.1913
