256

C     19.8051      8.3355     13.5539
N     -2.6081     10.7050      1.4163
C      3.7511      1.7078      7.0141
C      2.3329      2.5369      2.2114
C      7.5832      4.7603      2.4325
H     -3.3388      6.7139      2.5957
C      7.6280      3.4979      3.1424
C      3.4488      3.9787      5.2095
C     16.3142      7.0495     19.2818
C      6.5237      1.8098      4.1699
C     -7.4067      8.2872      9.5487
C     13.4722      8.9736     13.7389
N      0.0429      2.8712      6.1100
C      0.2572      5.6738      0.5904
O     -1.0849      2.5003      1.5889
C      3.2282      4.0795      6.6431
C     15.8930      6.2324     17.0249
C     17.1194     10.5955     16.4640
H    -11.7610     14.0651      9.7464
H     -2.2936      2.5684      5.0665
H     17.6203      7.0718     14.5836
C     17.4381      9.0720     16.2902
H     -8.0516      6.8180     10.9147
H     -7.3820      9.1464     10.0670
H     -1.6031      5.7601      6.5730
H      7.6159      2.3549      8.1398
C      2.9310      2.9445      7.4440
H      7.4466      1.2327      4.6159
O     14.6926     10.2538     15.3083
C     -5.1146     12.8239      8.0111
C      6.2146      5.9910      9.6817
H      3.0517     -0.6239      6.8747
H      3.9937      5.6332      7.7408
C      6.3567      2.9264      3.1840
H      5.6690      3.0672      7.4052
H     -9.0540     10.6303      9.3000
H      3.1620      6.8571      8.9002
C     17.3039     11.1990     17.7425
C     -2.7082      8.6300      4.8194
O      2.1207      8.6058      4.9309
C     -1.4043      8.4860      6.9705
C      8.8289      7.8947     11.6881
C     20.6286      7.3030     12.8778
C      6.5387      6.4978     -0.7475
H      5.8347      4.4509      2.2586
H     18.1901      9.7427     14.3306
H      1.5237     -0.9735      5.4868
H     -5.0895      5.1414      8.7577
C      7.6663      2.5728      9.1599
H      0.9640      0.9484      1.8726
C      7.0075      6.2402     10.7528
C      7.9699      5.7226      3.2448
H      8.2234      7.2372      1.8424
C     -1.0339      6.9310      4.9040
H     15.9575      8.4170     20.7848
H      3.1852     -1.1018      2.1811
H     14.1821      7.1327     13.1334
C     -3.2739     11.5431      7.0923
C      6.2376      4.7546      8.8840
C     16.1507      7.4911     17.9040
C      4.9351      5.1105     -0.0128
C     17.9515      8.9657     14.9882
H     -3.5909      7.8365      5.4328
H      8.4868      7.5210      3.9283
H     -9.2542     14.9786     10.4446
H     17.8617     13.0285     17.0004
C     -0.2300      3.5792      8.0954
H     21.5499      9.0319     14.2049
C     13.0582      8.9762     12.2985
C      1.6762      2.0156      7.6924
H     10.8982      7.3707     10.5568
C     -0.5075      6.4358      1.4883
H      5.7457      7.3595     -0.8686
H     19.0026      8.8957     12.9215
C     10.1569      7.4752     12.2843
O     15.0434     11.0759     13.2152
C     -6.4973      8.2096      8.5655
C     16.7816      8.4294     20.0671
C     -9.5472     14.8718      9.3150
C      2.6470      0.9688      4.9487
H     -2.1186     11.2366      2.2852
H     -7.0085     12.0562      7.0981
H    -11.2011     16.9631      9.9033
C      4.0416      3.5599      3.2550
H     -2.8063      7.3115      7.1033
C     -1.9943      8.5160      0.3744
C     11.4609      7.1618     11.3999
H     -1.8141     10.6315      5.8514
C      5.1781      2.1920      5.0315
H     17.9448     13.3433     18.4377
C    -10.5955     12.7010      9.0642
C     -8.6456     11.2114      8.3479
C     -2.0263      5.2564      3.6951
C     16.4173      9.6274     19.2138
C      2.8113      3.7417      2.5653
C     -7.8540      6.9427      9.8552
H     15.6139      8.4598     13.3722
H      1.0526      3.6511     -0.4884
O      5.8713      6.6430      6.3926
C      0.9143      8.1401      4.4262
H     -9.0242     11.3441      7.1346
C     -2.5493      8.9402      3.3870
C     -2.4328      7.7412      2.5508
H     -6.5777      6.9662      8.5021
H      8.2294      3.2758      3.9210
C     -2.8134      8.3361      7.4581
H      2.2418      3.8580      4.7075
H     12.9160     10.4893     10.3687
H      4.6331      3.4132     -0.6010
H      0.1691      3.5192      9.0997
C      3.2558      1.3073      2.1480
C     -0.3634      8.7074      2.0925
O      4.5732      3.8274      0.5071
O      7.3984      4.3154     10.9118
C      0.0102      2.9004      1.5022
C      0.0896      3.8992      3.7801
C     -5.7687     10.5948      7.7434
H     -2.9616      9.3801      6.6530
H     15.4692      9.9795     18.7861
H     -0.6053     10.0653      4.5205
H     13.0875      7.6939     10.4119
O      0.7649      9.8138      6.1421
C     -7.0469     11.4254      8.0052
C      0.8393      7.2413      6.7680
C     14.4981      7.8959     13.7142
H     15.6939      8.6095     15.5143
C      0.6595      7.8110      2.8753
H     -4.4992     13.6969      8.4072
C      2.4635      0.0472      4.0669
C      0.3544      2.4436      7.4042
C     -2.9249     10.6377      6.0785
C     -2.3121      3.4931      5.6550
C     17.9902     12.4130     17.7903
C    -10.1607     16.9027     10.0367
C      1.0626      2.0412      1.4843
C     -1.3492      7.9111      1.5470
C     -9.2662     12.5177      8.7445
N      1.7484     -0.9176      4.4216
O     17.0169      6.2247     14.9906
C      9.7571      6.5206      0.3766
H     18.2594      9.8840     19.4832
H     -0.2340      1.6392      7.8084
C     -2.7006      4.3607      2.6475
C     -3.1209      8.2471      8.8955
H      8.2673      2.1658      9.9041
H      7.2887      3.7066     11.6067
H     -4.3963      9.4927      8.9417
C     -2.6342      9.8797      0.4154
H     -8.3697      7.2410      8.9841
H      1.7251      7.9464      8.7316
H     -0.2378      9.4929      2.7982
H     12.7213     10.8730     11.7866
H     -1.1296      3.3123      8.5236
C     14.9695      7.6863     15.1810
C     13.1659     10.0183     11.3647
H      1.9729     -1.7936      3.9477
C      4.4082      7.9388      4.2183
C      8.0000      7.0252      2.9585
C     20.7182      9.5533     14.1262
C     19.0705      8.1321     14.8460
C      4.4486      6.0532      6.1599
C      1.9954      4.9851      2.3637
C      6.3016      5.5191      0.3485
C      5.7837      7.2682      4.1736
C      8.5270      6.5044      0.7797
C      4.4700      4.8493      7.1130
C      1.4519      5.2044      0.9002
H     -3.0278      6.4251      6.0256
C      6.6347      6.9488      5.4640
H     -0.8799      2.6351      5.7232
H     -2.7982      4.9907      1.7618
H      1.4893      2.1538      0.4229
C      7.4490      5.2571      1.0950
H     -0.8876      3.2441      3.4785
O      8.0471      7.0752      5.7969
H      8.9272      8.7990     11.2814
H     20.8574     10.4211     13.6083
H      0.8429      3.1556      3.6562
H     -3.1494     11.5851      1.5581
H      2.3608      4.7711     -1.0413
H      5.0765      5.2353      4.4395
C     12.8555      7.6103     11.4955
H      7.4333      4.6216      4.7805
C     15.7540      6.3178     15.5469
H      1.6544      5.8696      8.9509
C     -1.7657      4.6960      5.1706
C      0.4225      6.9652      5.1244
H     17.6126      8.9456     20.6785
H      3.2767      1.7955      4.2892
C      1.4904      5.7530      4.5911
H      2.0219      0.2621      1.9355
H     16.4734     11.2782     15.9710
C     -4.3245      5.9857      8.3834
C     -8.8135     13.9067      8.4544
C      6.4656      7.2717      2.9429
C     -3.6167      9.8137      5.1608
C     -0.0768      6.3694      2.8894
C     -1.4550      6.6654      3.5870
H      2.7218      3.4089     -0.1870
H      4.8032      5.2674     -1.0658
H     -1.9037      3.3351      6.7439
C    -10.8864     14.1140      9.0790
H     -1.0681      9.4880      7.3397
C      0.8044      5.1192      3.3033
C      5.2869      3.7055      2.7858
H      1.4738      4.5618      7.5544
C      7.1098      3.8268      9.5255
H     -2.3200     12.3077      7.5755
H     -5.7319     10.6944      6.6190
C      2.1100      6.7999      8.5582
C     -1.9893      5.9342      5.6435
C      3.0414     -0.0789      2.5899
C      1.3749      4.8270      5.6506
C      2.1449      6.5586      7.0520
C      1.8225      4.2072     -0.0151
H     -1.3795      5.3850      1.5721
H      4.2110      1.5727      2.6416
H     -2.7511      9.0611      9.6695
H     -4.7353      6.5504      7.6374
H      6.5778      1.1294      3.3919
C     -0.0815      9.2534      5.0757
C     -4.1381      7.2534      9.2738
C     -4.4557     11.6805      7.7615
H     -3.3245      3.5451      2.9632
H     -4.6627      9.7750      5.6055
C     -0.3318      7.5201      7.5463
C      0.4027      3.7991      5.3545
O      8.2917      5.4763      4.4358
C     -1.3556      8.3246      5.5037
C     -6.9827     14.4058      7.2049
C      4.9417      1.8844      6.4354
C      2.9010      0.5360      6.2215
H     -3.1309      6.0289      7.9147
H     -6.0723     14.2218      6.6324
H     -8.4279     16.6528      8.7746
H     -6.2488     12.2813      9.9390
H      1.4256      9.2283      6.6033
C      2.0984      5.0524      6.8453
C      4.0462      5.2980      4.7736
C     -9.5378     16.2692      8.8858
H     20.3355      9.6385     15.1037
C      8.3532      6.8649     10.6394
H     -9.3527     16.5855     10.4542
H     11.2673      6.1675     11.3878
C      4.1223      2.8933      4.5299
C     17.4855     10.3695     18.8139
C     -6.5781     12.6169      8.9032
C     -5.2847      9.3552      8.2576
C      5.5144      4.1172      7.7712
C     -7.3207     13.8566      8.4481
H     -0.4639      4.3550      7.4693
H     -3.3534     10.3277     -0.1736
H     10.5549      5.5481      0.5687
C     14.3281     10.1690     14.1640
H    -10.2039     17.9755     10.3324
H     -2.1620      9.8264      2.9760
