265

C     19.6455      8.4831     13.2931
N     -2.9171     10.5108      1.9635
C      4.1119      1.5205      6.9468
C      2.3716      2.3748      1.9906
C      7.6603      4.7236      1.7563
H     -2.9094      6.5074      2.4012
C      7.4642      3.2723      2.1821
C      3.2534      3.8871      5.4845
C     16.4834      7.1798     19.5112
C      6.4791      1.9863      4.0532
C     -6.9456      8.3617      8.6378
C     13.6906      8.6509     13.9850
N      0.3111      3.0254      6.3339
C      0.7134      6.1564      0.6817
O     -1.2343      3.0503      2.0670
C      3.3476      4.0636      7.0462
H     13.3895      7.1329     11.4367
C     15.7577      6.3780     17.2475
C     16.9499     10.3688     16.1570
H     -2.0278      2.4289      6.2690
H     17.6353      6.5615     14.5130
C     17.0036      8.8858     15.9154
H     -7.8422      7.4105     10.3582
H    -11.2124     16.4245      9.5246
H     -0.9956      6.1265      7.3826
H     -6.6317     14.2486      9.2729
C      3.1255      2.8031      7.8450
H      7.7123      1.8886      3.9927
O     14.2779     10.6916     15.3483
C     -5.3270     11.9842      9.4777
C      6.7773      6.1435      9.4848
H      2.4936      0.0113      6.2807
H      4.4938      5.5267      8.1535
C      6.4268      2.8000      2.8235
H      5.4567      3.4084      8.0484
H     -9.0876     11.9777      9.6245
H      2.1389      8.0254      8.9747
C     17.3569     10.8406     17.3954
C     -2.8779      8.7264      5.1969
O      2.2458      8.6972      4.7472
C     -1.1881      8.3993      7.0860
C      8.8659      8.1037     11.8307
C     20.6199      7.4845     12.7189
C      6.4769      6.8531     -1.1826
H      5.0877      3.3187      1.2711
H     17.7770      9.3554     13.6264
H      2.2722     -1.0876      5.4166
C      7.8707      3.2180      8.6982
H      0.5156      1.0373      2.2878
C      7.4080      6.4557     10.7521
C      8.0481      5.5282      2.7610
H      8.5532      7.0318      2.0023
C     -0.9378      6.7856      5.2724
H     16.3777      8.9778     21.2918
H     16.4671     11.1263     15.4166
H      2.5728      5.5515      0.7562
C     -3.7805     11.3631      7.6783
C      6.1031      4.7546      9.1737
C     16.1545      7.5412     17.9399
C      4.7166      5.2410     -0.3578
C     17.7714      8.5858     14.6926
H     -3.2480      7.7897      5.6398
H      8.1780      7.1876      4.2018
H     -9.3997     13.5681     10.3042
H     -7.9310     10.3843      9.3794
H     -1.7408      2.5036      2.5390
H     18.1250     12.8846     16.3704
C     -0.5437      3.1316      8.6835
H     19.5120     10.9182     13.7223
C     13.3366      8.7875     12.3487
C      1.6689      2.1185      8.1281
H     11.2425      6.8330     10.9526
C     -0.5868      6.4498      1.7544
H      5.8499      7.6835     -1.0011
H     -2.6611      2.9807      4.9421
H     18.8205      8.5051     12.6428
C     10.0718      7.5751     12.7446
O     15.7771     10.0702     13.7767
C     -5.7251      8.5977      7.7628
C     16.9572      8.5205     20.3979
C     -9.6663     14.2629      9.5113
C      2.5522      1.1328      4.6142
H     -3.0774     10.9863      1.2468
H     -6.9904     13.0265      6.4537
H      3.4317      6.9047      9.1513
C      4.1211      3.4748      3.0643
C     -2.3359      8.3823      0.8011
C     11.3588      7.0539     11.9894
C      5.4124      2.2128      5.1459
H     17.7621     12.9292     17.9749
C    -10.9665     12.5604      8.6737
C     -8.7739     11.4477      7.5525
C     -1.8426      5.1024      4.2423
C     16.7573      9.7908     19.4259
C      2.8501      3.6043      2.4824
C     -7.5082      7.1320      9.2347
H    -10.9239     11.7644      9.6837
H     15.5119      7.7667     13.3937
H      8.3399      5.6146      4.5344
H      1.7209      2.6833     -0.0443
O      5.5968      6.3889      6.1098
C      0.9873      8.2826      4.6526
H     -8.4678     12.0760      6.6110
C     -2.7924      8.3189      3.6074
C     -2.3214      7.0774      2.9113
H     -5.1300      9.8818      8.7846
H      8.4387      2.7299      2.5540
C     -2.3694      8.6816      7.8103
H      2.5048      4.0842      4.7637
H     -0.2559      3.6900      9.4866
C      3.3966      1.2108      1.9416
C     -0.0683      8.5308      2.3122
O      4.2178      3.9675      0.0055
O      7.1185      3.6804     10.8004
C      0.0230      3.0527      1.7976
C      0.3026      4.0393      3.9621
C     -6.3122     10.7465      7.7901
H     15.6204     10.1663     19.0812
H     -0.2733      9.9974      4.2591
H     12.4561      7.9577     10.4679
C     -7.6784     11.0042      8.4389
C      0.9585      7.3294      6.8450
C     14.5860      7.4659     13.8531
C      0.7841      7.7062      3.2211
H     -4.8266     12.9764      9.0645
C      1.8488      0.0068      3.6767
C      0.3870      2.4886      7.5340
C     -2.9599     11.0310      6.4093
C     -2.5146      3.2293      5.9373
C     17.9400     12.2162     17.2210
C    -10.1852     16.6918      9.8470
C      0.9516      1.9503      1.6845
C     -1.3867      7.6222      1.8201
C     -9.5317     12.2956      8.4987
N      2.1035     -1.1728      4.3785
C      3.7994      1.1815      0.4446
O     17.1146      5.8834     15.0516
C      9.6512      6.2115      0.6149
H     18.6673      9.2325     18.7242
C     -2.6632      4.4772      3.1607
C     -2.6148      8.5280      9.2528
H      8.0917      3.9855      7.9604
H      1.8473      1.6337      6.4028
H      8.0049      3.2986     11.3511
H     -5.0509     10.1860      6.1241
C     -3.0379      9.3987      1.1720
H     -7.7677      6.3625      8.6164
H      1.6814      6.3372      9.3784
H     -0.7167      9.5675      2.2437
H     13.4217      9.8750     10.5608
H      3.3936      0.1614     -0.0948
H     -1.6195      2.9149      8.8969
C     15.0647      7.4398     15.3298
H      3.0567      1.8602     -0.0055
C     14.1451      9.5961     11.5632
H      7.9415      5.7213     11.6053
H      1.6891     -2.0138      4.0874
C      4.4145      8.0765      4.1436
C      7.9671      6.9391      2.8633
C     20.1639      9.9079     13.9754
C     18.8001      7.8705     14.4032
C      4.3393      5.8901      6.3937
C      1.9594      5.0085      2.4527
C      6.1079      5.6691     -0.2108
C      5.4995      7.1263      3.7712
C      8.2503      6.2761      0.4574
H     14.5496     10.5598     11.9349
C      4.3722      4.8844      7.4587
C      1.7066      5.1263      0.9718
H     -3.2466      9.0819      7.2840
C      6.1519      6.8545      5.0653
H      1.6310      1.7642      4.6339
H     -2.6749      5.2306      2.4029
C      7.2761      5.2050      0.2829
H     -0.4555      2.9705      3.9017
O      7.6504      7.1258      5.4768
H      8.9695      9.1139     11.9386
H     20.0350     10.5036     14.8911
H      0.8328      3.1775      3.0797
H      0.3412      3.6295     -0.0225
H      4.8549      5.2828      4.4249
C     12.6220      7.9844     11.5927
H      6.6756      4.1869      7.2657
C     15.7733      6.1006     15.7735
C     -1.7809      4.5945      5.7355
C      0.6627      7.1248      5.4243
H     -7.4413      9.2308      9.0454
H      3.5487      1.5641      4.1291
C      1.3630      6.0661      4.8711
H    -11.4948     12.1854      7.8397
H      1.8793     -0.4155      1.3974
H     14.2656     10.1206     16.2322
H     -2.1379      7.5807      9.7582
C     -4.7797      7.3745      7.9153
C     -8.8259     13.5823      8.3654
C      6.4519      7.0888      2.5995
C     -3.4339     10.1207      5.2487
C      0.0690      6.3685      2.9513
C     -1.4743      6.4134      3.9402
H     -2.8151     11.5527      8.1795
H      1.6812      4.5506     -0.9789
H      4.9632      5.1267     -1.6779
H     -3.5328      3.4117      6.6369
C    -10.9226     14.0045      8.9270
H     -1.7394     11.2260      6.8416
C      0.8653      5.4150      3.5397
C      5.2215      3.3334      2.3628
H      1.3212      4.8722      8.2031
H     18.0646      8.4347     20.4197
C      7.0370      3.7907      9.5568
H     -6.3566     11.4120      6.8670
C      2.4161      7.0172      8.7995
C     -1.0751      5.6801      6.2621
C      2.3903      0.0686      2.2975
C      1.0556      4.9970      5.8679
C      2.1320      6.4911      7.4816
C      1.4520      3.8880     -0.0373
H     -1.0003      5.2792      1.3906
H      4.2009      1.3910      2.7858
H     -2.4758      9.4252      9.9204
H      4.6189      1.6393     -0.2087
H     -4.2840      7.2182      6.9312
H      8.8574      2.6565      9.2049
H     -2.3982     10.5511      4.7482
C     -0.1708      9.1148      4.7616
C     -3.9845      7.8474      9.1806
H      3.8139      5.9959     -0.1541
H     -3.4764      9.1697      3.2380
C     -5.1058     11.0329      8.4553
H     -3.1530      3.5491      3.2654
H     -3.9288     10.6014      4.5928
C      0.0601      7.7320      7.7209
C      0.7938      3.7896      5.3749
O      7.8850      4.9154      3.8873
C     -1.4467      8.4430      5.5572
C     -6.6942     13.6733      7.3449
C      5.4270      1.8036      6.4736
C      2.8595      1.0073      6.0412
H     -5.5759     13.8594      7.5943
H     -8.1084     16.4070      9.3764
H     -4.7929     12.0611     10.5262
H     19.0111     11.8645     17.7561
H      0.3385      8.0877      8.7406
C      1.8315      4.8953      7.1999
H     -0.2128      4.1810      1.6192
C      3.7960      5.4819      5.0137
C     -9.2964     15.8505      9.2945
H     21.2167     10.0696     13.8264
H     -0.0843      6.3563     -0.2642
C      8.4123      7.8690     10.4067
H     -9.7112     16.5764     11.0177
H     11.6778      6.2556     12.6414
C      4.1114      3.0311      4.5519
C     17.5800      9.7104     18.3578
C     -6.8827     12.3310      9.3130
C     -5.7348      9.6886      6.8375
C      5.7493      4.2805      7.7761
C     -7.2654     13.5728      8.8255
H     -0.7564      4.2525      7.9674
H     -3.6204      9.5318      0.2570
H     -7.5497     12.0825     10.1912
H     10.1463      5.0534      0.6450
C     14.6602      9.7715     14.3273
H    -10.0036     17.7292      9.6521
H     -1.7906      9.1619      3.5760
