267

C     19.9960      8.7865      0.5361
N     10.3626     10.7075      1.6211
C      3.7607      1.7954      6.9111
C     15.3453      2.2829      2.1574
C      7.6736      4.8029      2.1049
H      9.7173      6.9905      2.4562
C      7.7154      3.5490      3.1553
C      3.4385      3.8656      5.2793
C     16.0740      7.1911      6.2870
C      6.3169      1.7003      3.9793
C      5.1538      8.1665      9.2251
C     13.6863      8.9868      0.9787
N     13.6637      2.4662      5.9284
C     13.9147      6.6710      0.5326
O     11.8333      2.9881      1.8841
C      3.0085      3.9783      6.8396
H     13.8805      7.8301     -1.5123
C     15.6638      6.2309      4.2095
C     16.3240     10.3863      3.7521
H      1.5401     14.0812     10.1793
H     11.2105      2.0764      4.9345
H     17.3184      6.9007      1.7061
C     17.0999      9.1611      3.4847
H      4.7326      6.6272     10.7883
H      4.1267      8.6616      9.4382
H     11.1008      5.3429      6.9617
C      2.7332      2.8137      7.6535
H      7.5452      1.2660      4.3816
O     14.1284     10.6755      2.4904
C      8.0318     12.9518      8.2944
C      6.2804      6.0968      9.7688
H     16.9191     -0.0644      6.2736
H      3.3387      5.1943      8.2625
C      6.5530      2.7896      3.1578
H      6.1133      3.6681      7.5315
H      4.0229     10.7194      9.2528
H     15.7006      6.5869      9.0839
C     17.0881     10.9378      4.8389
C     10.0080      8.5456      5.0155
O     14.9729      8.4999      4.6964
C     11.6375      8.3524      7.0744
C      8.7153      7.9318     11.8342
C     20.5484      7.5606     -0.0726
C      6.5918      6.8982     12.2058
H     18.6586      3.7792      1.4011
H     17.1575      9.4445      1.1570
H     13.9890     -0.7632      5.8703
H      7.8576      6.1261      8.6013
C      8.3793      2.9724      9.0546
H     13.5792      0.9665      1.9754
C      7.1628      6.6343     10.6897
C      7.9901      5.7299      3.1840
H      8.3604      6.9719      1.9136
C     11.7025      6.8448      4.9906
H     16.0683      8.1956      8.2122
H     16.1395     11.4325      3.4263
H     15.8024      5.4679      0.5086
C      9.7789     11.4113      7.5139
C      6.4132      4.8734      9.0202
C     16.0773      7.4888      4.9096
C      4.8111      5.1259     12.6275
C     17.5788      8.9387      2.1365
H      9.7321      7.2061      4.9726
H      8.1892      7.7229      3.6928
H      3.4965     14.5441     10.5499
H     17.8799     11.9952      3.5488
C     -0.1322     16.4529      8.1805
H     20.3544     10.8868      1.2928
C     12.8101      8.9352     -0.3336
C      1.5174     14.7380      7.9691
H     10.7884      6.1440     -1.7627
C     12.5045      6.5126      1.2444
H      5.4596      7.4344     12.2247
H     19.4243      9.3706     -0.2911
C     10.3628      7.7879     -0.4242
O     15.3328     10.5504      0.6659
C      6.4140      8.5078      8.7713
C     16.7894      8.0136      7.4181
C      3.4370     14.7941      9.5163
C     15.5456      1.0932      4.8763
H     11.1314     10.2041      2.1712
H      2.6027     18.0758     10.1475
C     17.0635      3.4392      2.9091
H      9.6278      8.0993      7.4507
C     11.1701      8.6959      0.4107
C     11.3547      6.8711     -1.3428
H     11.2595     10.4798      5.8144
C      5.3439      2.2118      4.8994
H     17.2002     13.2381      4.4098
C      2.5182     12.5499      9.0934
C      4.5051     11.4649      8.4492
C     10.7533      5.2161      3.6727
C     16.6976      9.4138      6.5756
C     15.7928      3.5477      2.2897
C      4.9348      6.7463      9.8664
H      3.0750     12.3656     10.1744
H     15.1984      7.8515     -0.0094
H      8.7223      6.2688      4.6808
H     13.7935      3.8053     -0.6893
O      5.4748      6.4960      6.5111
C     13.7134      7.9209      4.4573
H      3.8760     10.6937      7.6418
C     10.0292      9.0176      3.4210
C     10.6894      7.6926      2.6961
H      7.2474      7.6981      8.6136
H      8.5476      3.6069      3.8783
C     10.5640      8.2751      8.0211
H      2.3207      3.7599      4.8118
H     12.1527     10.4086     -1.7099
H      4.7956      3.3984     12.2574
H      0.6584     16.7177      8.7784
C     16.2127      1.1638      2.1556
C     12.8111      8.6874      2.1440
O      4.5382      3.8935     13.0018
O      7.3041      3.9486     11.0099
C     12.8095      3.2966      1.2951
C     13.2608      3.7459      3.5622
C      7.1280     10.8897      7.4555
H     10.2483     10.6623      8.2695
H     15.5050      9.4892      5.9969
H     12.4309      9.5721      4.0515
H     12.6595      8.4799     -2.6767
O     13.2274      9.9558      5.6763
C      5.9793     11.7882      7.9698
C     13.6087      7.0899      6.5689
C     14.6332      7.8961      0.9178
H     15.4400      8.3513      2.9157
C     13.5941      7.6129      2.9841
H      8.5508     13.9995      8.4161
C     14.9983      0.0585      4.0936
C      0.2383     15.4611      7.3064
C     10.1701     10.4089      6.3092
C     10.7609      3.1381      5.5154
C     17.8393     12.1743      4.4669
C      3.1170     17.0110     10.1623
C     13.9840      2.1344      1.6069
C     11.7261      7.8841      1.6778
C      3.7822     12.6772      8.4872
N     14.8125     -0.9078      5.1033
C     16.5967      1.2611      0.7045
O     16.9417      5.9986      1.9475
C      9.7496      6.7261      0.6997
H     18.5661      9.7293      5.6979
H     -0.6307     14.8278      7.0019
C     10.1064      4.5830      2.5766
C     10.6600      7.7508      9.2309
H      8.2594      2.5625      8.1889
H      1.8966     13.8402      7.4938
H      8.3585      3.8024     11.3788
H      8.1202      9.2839      8.0546
C     10.3574      9.8554      0.4745
H      4.0827      6.2888      9.2727
H     14.3938      7.4555      9.0005
H      9.6534      3.1964      4.8672
H     13.7812     10.5295     -0.7408
H     17.3822      1.8815      1.0173
H     -1.1926     16.4680      8.6882
C     14.9906      7.5905      2.2512
H     17.3062      0.4696      0.3171
C     13.1255      9.9620     -1.4093
H     14.6459     -1.8933      4.4189
C      4.2620      8.1106      4.3485
C      7.8224      7.0792      2.9390
C     20.6828      9.9983      1.2589
C     18.7770      8.3464      1.7404
C      4.1701      6.0388      6.2427
C     14.8236      4.9878      2.1267
C      6.3012      5.5309     12.8372
C      5.6006      7.4945      4.1711
C      8.3830      6.4489      0.7064
C      4.1414      4.8531      7.3687
C     14.6013      5.2454      0.7093
H      9.9702      5.9414      6.2276
C      6.1688      6.9364      5.3454
H     13.8490      1.7918      5.1761
H      9.7188      5.5654      1.9205
H     13.9947      1.9583      0.5137
C      7.1965      5.3588      0.8757
H     12.2350      3.9774      3.8866
O      7.3525      6.8788      5.4582
H      8.1699      8.9142     11.6997
H     13.6317      2.8701      3.0744
H      9.5920     11.3546      1.9263
H     15.5354      4.6351     -1.1090
H      8.4787      2.1784      9.8845
H      4.6657      5.2799      4.3302
C     12.8572      7.8451     -1.5229
C     15.7333      6.2371      2.7015
C     11.2777      4.4757      4.9652
C     13.2173      6.8399      5.0674
H     17.5666      7.3125      7.7542
H     16.0059      2.1808      4.4338
C     14.1981      5.7211      4.6665
H      1.7384     11.8162      8.5314
H     15.6823     -0.6694      1.9589
H     14.8922     11.2620      3.1164
H     13.2067      7.8740      8.4019
C      8.9891      6.4835      8.4843
C      4.4164     13.9073      8.7158
C      6.2964      7.5317      2.9207
C      9.2539      9.4502      5.8018
C     12.7394      6.3564      2.7235
C     11.4463      6.4654      3.5784
H     15.3081      3.2354      0.0876
H      4.5603      5.0540     11.4995
H     10.4571      3.1922      6.5430
C      2.1040     14.2304      9.2143
H     11.5697      9.6088      7.1039
C     13.8035      5.1126      3.1529
C     18.4850      3.5256      2.5478
H     13.7058      4.5909      7.3691
H      7.0898      8.6279      6.9988
C      7.3765      3.8460      9.6201
H     10.6109     12.3234      7.9852
H      7.1428     10.6769      6.5427
C     14.8282      6.4716      8.6272
C     11.1417      5.5702      5.7614
C     15.7070     -0.2969      3.0196
C     13.7850      4.8139      5.6841
C     14.8482      6.4883      6.9973
C     14.7252      4.0681     -0.3040
H     11.8986      5.7626      0.7647
H     17.2125      1.3777      2.4956
H     11.5697      8.0393     10.0251
H     15.9825      1.2062     -0.1576
H      9.9685      6.5182      7.8975
H      5.8067      0.9665      3.2866
C     12.6231      9.0078      4.9199
C      9.4930      7.0802      9.7312
H      4.1081      6.0330     12.8649
H      9.1823      9.5225      3.1958
C      8.3231     11.7429      7.7573
H      9.3028      3.7759      2.4675
H      8.3606      9.0936      6.1844
C     12.8808      7.8910      7.3991
C     13.5137      3.5575      5.0636
O      8.6464      5.4088      4.2241
C     11.4333      8.2504      5.4550
C      6.2589     14.8536      7.3422
C      5.1722      2.0153      6.3303
C     16.2613      0.8066      5.9967
H      7.2780     14.4728      7.2561
H      4.4498     16.2459      8.6788
H      7.0780     12.5930      9.7010
H     12.4240     10.7308      5.3921
H     18.4566     12.3229      5.2965
C     14.6791      4.9993      6.8539
H     13.1907      4.2220      0.7592
C      3.7338      5.2009      4.9592
C      3.4208     16.0628      9.0172
H     21.7313      9.5755      1.3751
H     13.3860      6.2347     -0.4513
C      8.5334      7.0550     10.8032
H      2.9883     16.0452     10.4736
H     11.3359      6.2816     -0.2681
C     17.0685      2.9140      4.2047
C     17.6026     10.1098      5.8901
C      6.6076     12.9093      8.8816
C      7.0640      9.4255      7.8646
C      5.5432      4.3066      8.0514
C      5.6821     14.2236      8.4644
H     13.0244      5.2016      6.1251
H      9.4831      9.8971      0.0437
H     10.2990      5.6033      0.4397
C     14.4225     10.1362      1.4082
H      4.1332     17.6255     10.4978
H     10.8112      9.7302      3.6367
