261

C      6.8218      9.3052      0.8963
C     17.0558      1.6279      6.9673
C     15.0262      3.2022      1.4103
C     20.0440      4.8038      2.1271
H      9.5725      3.8512      2.9158
C     20.0753      3.4492      2.5629
C     16.4797      4.0896      5.6556
C      6.6112      9.7343     10.2857
C     15.7852      7.2804      6.4965
C     18.9823      1.7700      4.1482
C      5.8859      8.7474      9.5752
C     13.8752      8.6143      0.7808
N     12.9067      2.5494      6.3875
C     13.1848      5.8052      0.7188
O     11.5028      2.0833      1.5744
C     16.5951      4.0464      6.9982
C     15.5462      6.2515      4.5602
C     16.2678     10.4853      4.0389
H     14.2303      0.8502      9.4159
H      9.0963      3.5877      4.7043
H     17.1130      6.4608      1.5857
H      6.4049     11.3582     11.8979
C     16.7574      9.2931      3.6064
H     20.7400      3.4876      3.5489
H     12.6689      7.3849     -2.4618
C     16.2046      2.7748      7.6356
H     11.1047     10.3355     -0.8433
H     19.4691      0.8453      4.3273
O     14.9363     10.5703      1.8954
C      8.0938     12.8487      8.3946
C      7.0275      5.8993      9.6560
H     15.7392      6.5131      9.2497
C     18.9004      2.3495      2.5278
H      6.4118      5.4701      7.0490
H      7.0905      9.3955     11.1858
H      5.4622     10.8801      8.9090
H      5.3154      6.9727     10.6826
C     17.6358     10.7237      4.9026
C      9.9135      8.4604      5.0393
O     14.7195      8.7264      5.0852
C     11.3781      7.9764      6.9974
C      8.7159      7.9000     -0.8060
C      7.4646      8.0702      0.0580
C      6.2862      7.2829     12.1159
H     17.5063      3.8073      1.4239
H     14.1841     -0.3151      3.1387
H      8.2078      5.8982      7.5565
C      7.1685      6.6051     10.9607
C     20.4933      5.6288      3.1447
H      8.4608      8.8269      1.9781
C     11.8171      6.6296      5.1515
H     14.9905      8.5559      7.6593
H     17.1686      0.6145      2.1323
H      5.3448     11.5028     10.6424
H     14.7781      6.8838      0.5510
C      9.8705     11.6665      7.2930
C      5.8743      5.4923      9.1846
C     15.8468      7.5758      5.1250
C      4.7909      5.4409     13.3344
C     18.0380      9.6314      2.7853
H      9.3223      7.5521      5.4137
H     21.4235      7.5950      3.4452
H     16.6366      1.1179     10.5559
H      6.6018     12.4962      9.8764
H     17.5336     12.2222      4.2962
C     13.1507      3.7733      8.7372
C     13.5864      8.1525     -0.7730
C     14.7723      1.9408      7.7475
C     11.9356      6.3323      1.2641
H      5.2467      8.0206     11.9391
H     10.4722      2.4067      4.5605
H      5.2709      9.9148     11.7127
C     10.0416      7.6727      0.0269
O     14.5211     10.8512     -0.1396
C      6.1122      8.7666      8.2384
C     16.0271      8.4753      7.3251
C     16.5438      1.5526      9.5633
C     16.0791      1.4549      4.6247
H     12.4869      9.4475     -0.3551
C     16.5755      3.4309      3.3230
H      8.9260      9.4317      6.5775
C     10.9361      8.6480      0.6125
C     11.1251      7.0438     -1.1096
H     11.0956     10.0987      7.6267
C     18.2551      2.6933      5.1740
H     17.2835      0.1296      5.4585
H      8.3138     13.7501      8.6658
C      2.6898     12.4660      8.7414
C      4.8193     11.1683      7.9630
C     10.6091      5.5323      3.5115
C     16.7904      9.6954      6.5493
C     15.2796      3.6951      2.6978
C      4.7309      7.7709     10.2017
H      2.8682     12.0515      9.7294
H     16.0298      8.4588      1.1473
H      9.4430      5.1501      1.8387
H     14.6491      4.1445     -0.5584
O      5.4051      6.8194      6.5050
C     13.6248      8.1143      4.5594
C      9.9457      8.7353      3.5358
C     10.8385      7.9885      2.9492
H      5.4517      8.1579      7.6765
C     10.2872      7.9317      7.5895
H     14.9984      8.0641     -2.2431
H     18.9413      2.2721      1.2762
H     13.9082      4.0722      9.6446
C     15.9453      1.9890      0.8888
C     13.0095      8.5765      1.9380
C     12.3831      2.9639      1.7674
C     12.8390      3.7554      4.1471
C      7.4809     11.0762      7.1902
H     13.8697      0.7861      3.9560
H      9.5053      7.6163      6.8550
H     15.8674     10.0883      6.3930
H     13.3497      5.4838     -0.4605
O     12.8882      9.7468      6.1485
C      6.1233     11.7568      7.7606
C     13.4751      7.2051      6.9182
C     15.1793      7.8706      1.4044
C     13.5772      7.5394      3.0316
H      8.2911     11.8794      9.2325
C     15.9070      0.6217      3.5265
C     13.2661      2.6078      7.8548
C     10.6979     10.6660      6.7364
C     10.2542      3.3918      5.0546
C     18.1670     11.9399      4.9538
C     16.0672      4.1218      9.7800
C     13.6342      2.6996      1.0996
C     11.6005      7.9621      1.5887
C      4.0449     12.3983      8.1515
N     14.6703      0.0796      3.8916
H     16.8189      1.7847     -0.4610
C     15.6878      1.6462     -0.4590
O     16.7554      6.2344      2.5383
C      9.3573      6.6640     14.0242
H     18.8432      9.2128      6.1475
H     12.7234      1.7602      8.2384
C      9.7408      5.0034      2.8040
C     10.2577      7.5561      9.0663
H     14.4160      1.2788      7.0291
H      7.6603      4.6562     13.2048
H      7.5729      8.9729      6.6898
C     11.6785      9.8365     -0.0130
H      4.5999      7.1662      9.3202
H     14.2872      8.0046      8.8342
H     11.5959      9.7186      4.5674
H     15.3632      9.0941     -0.8835
H     14.7988      2.1597     -1.0654
H     12.1157      3.6242      9.3518
C     14.8360      7.5327      2.7871
H      4.9692      5.3229      9.8865
C     14.8296      8.4380     -1.2244
C      5.8997     10.7940     11.0957
H     16.2654      4.1851     10.8581
H     15.5319     10.3466      4.8412
C      4.3866      8.2603      4.5246
C     20.4300      7.1211      2.6145
C      8.2624      9.8312      1.6199
C     18.8012      8.6490      1.8338
C      4.1029      6.2437      6.4590
C     14.6703      5.0996      2.7726
C      5.8333      6.0506     12.9799
C      5.4485      7.3325      4.1647
C      7.9253      7.0106     14.0189
H     11.9256     10.5329      0.8550
C      4.4436      5.1030      7.4596
C     14.3457      5.3229      1.2345
H     10.5833      5.5751      6.5989
C      6.1633      6.9975      5.3653
H      9.2079      5.7682     13.3736
H     13.5033      1.5491      1.2499
C      7.2030      5.5523     13.7802
H     13.0228      2.8488      3.2822
H     11.0896      7.2362      9.4023
O      7.5022      6.8983      5.7850
H      8.8403      8.7721     -1.2487
H     14.6825      3.1737      3.3806
H     12.8856      9.4693      2.3968
H     17.4101      5.4580      4.0962
C     12.4993      7.3544     -1.3041
C     15.4822      6.2837      3.0804
H     13.8450      6.2506      8.9458
C     11.2486      4.4086      4.7454
C     13.2000      6.9959      5.4310
H      3.8743      8.3890     10.4954
H     15.7300      0.4927      6.4879
C     14.1257      5.7037      4.9656
H     15.2222      0.0808      1.2973
H     16.3321     11.3548      3.3862
H     12.5569      7.0673      8.8182
C      8.1010      6.0285      8.7134
C     17.3528      0.9966      8.3658
C     19.0400      7.7349      2.8507
C      9.7882      9.6989      5.6680
C     12.7066      6.3255      3.1225
C     11.4836      6.8178      3.6224
H      4.2311      5.9656     12.6842
H      9.8647      3.2621      6.1420
C     15.1165      0.8994      9.0138
C     13.4817      5.1304      3.5730
C     17.6642      3.3228      2.5401
H     15.1985      4.3068      7.9784
H      7.9621      8.2851     10.1003
H     10.5247     12.4269      7.9598
H      7.4733     10.9340      5.9134
C     14.8287      6.9739      8.6914
C     11.2424      5.5116      5.8307
C     16.0119      0.8603      2.0445
C     13.9523      4.6827      6.1205
C     14.7263      6.4679      7.3302
C     15.0788      4.4188      0.4358
H     11.0378      5.6631      0.9929
H     16.9310      2.4889      1.1464
H     15.8210      0.5766     -0.5986
H     11.5214     11.1375      6.3388
H     18.1513      1.2373      4.3136
C     12.4603      8.8588      4.9376
C      8.8903      6.9496      9.5258
H      4.8407      5.2814     14.5827
H      9.1662      9.7428      0.7688
C      8.4906     11.9454      7.4022
H      9.9980      6.9554     14.9719
H      9.1995     10.4660      4.9653
H     18.9689      1.4487      9.7883
C     12.6846      7.7449      7.8373
C     13.6509      3.2960      5.3777
O     21.1728      5.5316      4.1625
C     11.2599      8.0685      5.5910
C     19.4692      1.6846      7.3694
C     18.4459      2.3463      6.7267
C     16.4574      0.8722      5.9267
H      7.3325      7.2465      6.6858
H      5.4487      3.4281      7.7019
H      8.4864      9.0483      7.9978
H     12.3016      9.5992      7.1279
H     18.8967     12.4920      5.6173
H      1.7699     11.9288      8.6582
C     14.7306      5.0233      7.2197
H     12.1811      3.9687      2.2462
C     16.8108      5.4138      5.1936
C     16.3296      2.9125      9.1217
H      7.9556     10.8259      1.9961
C      8.2492      7.4354     10.6774
H      3.8553      5.4591      8.4123
H     11.0260      6.5080     -1.9935
H     20.0341      1.0080      6.4782
C     16.5882      2.9607      4.7039
C     17.8607      9.2708      5.5841
C      6.6160     12.8835      8.5880
C      7.3056      9.4903      7.6755
C      5.9333      4.6696      7.8520
C     18.7800      1.1069      8.6202
H     13.0567      4.5057      7.9955
H     10.4798      8.7646      9.6009
H     13.5090      2.8944     -0.0813
H      6.2685     10.3594      0.4432
H      7.1547      5.8254     11.6482
H     12.1188      2.0788      5.9618
C     14.4362     10.0602      0.6834
H     15.5520      4.9565      9.2544
H     10.1493      9.7759      3.2240
