266

C     19.7810      9.0312     13.7749
C      3.9512      1.5366      7.0345
C      1.9548      3.3198      1.1690
C      7.1957      4.9348      2.2253
H     -2.6165      3.6233      2.9715
C      7.3173      3.5132      2.3672
C      3.1511      4.0211      5.6986
C      6.8837     -3.3391     10.3160
C     16.0342      7.0384     19.3549
C      6.4213      1.7356      3.9002
C      5.9663     -4.1937      9.4472
C     14.0241      8.7683     13.7048
N     -0.0556      2.6365      6.4922
C     13.5540     -6.6991      0.5568
O     -1.4647      2.0564      1.8197
C      3.1905      4.3107      7.1008
C     15.5866      6.2091     17.4248
C     16.5182     10.7325     17.0707
H      1.3682      1.2047      9.7337
H     -3.0354      3.2614      4.3413
H      6.0939     -1.4174     10.9066
C     16.8362      9.1613     16.2590
H      7.5441     -2.6372      9.7306
H     12.9883      6.7649     10.9627
H     -0.5410      5.1644      6.6623
C      3.0674      2.6041      7.7161
H     10.7622     -2.5416     -0.7246
H      7.4136      1.5806      3.6629
O     14.6455     10.9919     15.2297
C      8.2146     -0.1044      8.4028
C      7.2516      5.8487      9.4533
H     15.7590     -6.8586      9.1923
C      6.0280      2.6814      2.4629
H      7.2447     -3.6188     11.1377
H      5.1402     -2.8130      8.1326
H      5.4990     -5.8995     10.5193
C     17.7613     10.7601     17.7857
C      9.8440     -4.4310      5.0005
O     14.7415     -4.3938      4.8064
C     11.1667     -5.1085      7.0147
C      8.7923      8.4204     12.0554
C     20.2720      7.8431     13.0784
C      6.4388      7.1090     -0.9147
H      5.0350      4.4721      2.0135
H     17.9410     10.6261     14.9397
H      2.0716     -0.2609      2.7852
H      8.7698     -7.6458      8.0450
C      7.5243      6.7151     11.0317
C      7.6991      5.7665      3.1218
H     21.6066      9.2066     14.8296
C     -1.1294      6.5811      5.1575
H     15.0105      8.2200     20.4714
H      4.0336      1.1215      2.3754
H      4.9246     -2.4606     10.4199
H     15.5921      7.1270     13.7814
C      9.7155     -1.2062      6.9924
C      6.1426      5.6977      8.9249
C     15.9658      7.4338     17.9599
C      4.6446      5.7772      0.2318
C     17.7317      9.5958     15.3358
H      8.6768     -4.7939      5.1688
H      8.4747      7.5835      3.1890
H      4.3014      1.4254     10.1658
H      6.1701     -0.6010      9.4042
H     17.9463     12.6657     17.2634
C     -0.1427      3.2732      8.7554
C     13.6188      8.1876     12.3688
C      1.7551      1.6440      7.7882
C     12.3267     -6.3811      1.5406
H      5.5708      7.7366     -1.1613
H     -1.7467      2.3495      4.2569
H      6.1827      4.2701      4.0542
H      5.4704     -2.5661     12.0694
C      9.9602      7.7234     13.0155
O     14.3910     11.0630     12.9915
C      6.1088     -3.9453      8.0218
C     16.0719      8.2466     20.1042
C      3.5647      1.5365      9.3463
C      2.9473      1.6263      4.9627
H     12.3930     -3.2476     -0.0605
H      6.7253     -0.3394      6.3368
C      3.4579      3.3746      3.3641
H      9.0078     -3.0993      6.5252
C     10.7784     -4.1014      0.7798
C     11.1750      7.0536     11.9582
H     11.0072     -2.6037      7.1716
C      5.2230      2.4663      5.0148
H      8.7032      0.8978      7.7802
C      2.8340     -0.5811      9.2444
C      5.0483     -1.5197      7.9317
C     -2.1590      5.1981      3.6843
C     16.6889      9.4165     19.2591
C      2.1247      3.8043      2.5899
C      4.9951     -5.1084     10.0237
H      3.3523     -0.7427     10.2789
H     16.0826      8.9821     14.4957
H     -3.4012      5.2082      1.8617
H     14.8517     -8.7222     -0.7191
O      5.5100      6.9750      6.7029
C     13.3384     -4.8374      4.4254
H     17.0047      9.9491     20.0849
C     10.1081     -4.0549      3.5960
C     10.8128     -4.9841      2.9456
H      5.6603     -4.6863      7.1566
C     10.1080     -5.3976      7.6645
H     14.3621      8.3010     10.3739
H      5.3712      2.0916      1.5820
H      0.8400      3.4041      9.2283
C      2.8582      2.1650      0.8663
C     13.0347     -4.2497      2.0525
C     -0.8187      3.0582      1.5658
C     -0.0257      3.9590      4.0410
C      7.2867     -1.9923      7.1280
H      2.4483     -0.5099      4.7324
H      9.0599     -5.8149      7.1361
H     16.1163     10.2897     18.8105
H     13.5914     -7.1327     -0.5643
O     12.6365     -3.3068      6.0857
C      6.2455     -1.0079      7.2346
C     13.4896     -5.9580      6.7697
C     15.2917      8.1019     14.3318
H     15.7217      8.6386     16.3843
C     13.5393     -5.3529      3.0027
H      8.4914     -0.3633      9.3895
C      2.6219      0.9078      3.8098
C      0.3600      2.0573      7.8361
C     10.6820     -2.1117      6.3660
C     -2.2153      3.0899      4.9883
C     18.1104     11.9966     17.9793
C      2.9924      3.8238      9.8604
C      0.5917      3.0896      0.6492
C     11.7335     -4.9229      1.5898
C      4.1065     -0.5793      8.4687
N      1.8790     -0.1475      3.9241
H      2.9375      2.1338     -1.4335
C      2.6932      1.5412     -0.4188
C      9.2768      6.7431      1.0554
H     18.8109      8.8068     18.6836
H     -0.2420      1.2481      7.7674
C     -3.1360      4.5691      2.8301
C     10.3518     -5.5835      9.0792
H      2.1844      1.0694      7.1261
H      7.2056      4.7542     -0.1616
H      7.1963     -4.2465      6.5231
C     11.2623     -3.0420      0.0893
H      4.1769     -5.2151      9.2612
H     14.9124     -5.1234      9.1798
H     12.3896     -3.1953      4.1276
H     15.5693      8.9631     11.6702
H      1.9179      2.2145     -0.8191
H     -1.0574      3.1241      9.3345
C     15.0790      7.9474     15.8073
H      5.7572      6.5939      9.2415
C     14.4616      8.6201     11.4251
C      5.7773     -2.4660     11.0124
H      3.1386      3.8889     10.9753
H     15.7589     11.0908     17.8497
C      4.2476      8.2449      4.4141
C      7.4955      7.2547      2.7306
C     20.8417      9.6819     14.5307
C     18.6894      8.5760     14.8008
C      4.2134      6.0122      6.3211
C      1.8684      5.3092      2.5428
C      5.8563      6.1099      0.3545
C      5.3928      7.2759      4.1115
C      7.8757      6.8675      1.1726
C      4.3814      5.0622      7.6090
C     14.4271     -7.5557      1.2062
H     -2.4576      5.3182      6.4610
C      6.2870      7.2172      5.3725
H      9.3776      5.7929      0.4574
H      0.9610      2.1873      0.2399
C      7.2063      5.5650      0.8260
H     -0.3252      3.2401      3.2103
H     11.5234     -5.9567      9.0477
O      7.5545      7.0067      5.7175
H      9.4419      9.2230     11.7441
H      1.3748      3.4241      3.0527
H     13.3709     -3.3224      2.7042
H     16.3227     -8.7213      0.1432
H      4.7151      5.4659      4.4502
C     12.3933      7.4658     11.6197
C     15.6828      6.4589     15.9489
H     14.0832     -6.3754      8.9627
C     -1.4250      4.3072      4.6579
C      0.2284      6.8447      5.2626
H      4.3624     -4.2212     10.5626
H      2.7214     -0.2028      6.2281
C      1.2680      5.6580      5.0390
H      3.1331      0.0686      1.6293
H     16.8304     11.2890     16.1311
H     13.0684     -5.8092      8.7908
C      8.4931     -7.0280      8.9161
C      4.4276      0.7582      8.3784
O      5.8427      3.9029      4.9033
C      6.1415      7.7827      2.9257
C      9.5311     -3.0792      5.6058
C     12.7199     -6.6097      2.9767
C     -1.3971      6.5059      3.7037
H     16.8393      8.5018     20.9121
H      4.1158      6.7710     -0.1523
H     -2.3780      3.3371      6.0069
C      2.2716      0.7812      9.2489
C      0.6264      5.1228      3.6124
C      4.8395      3.6630      2.8929
H     14.4048     -8.0900      8.4919
H      8.2884      8.3347      9.8137
H      8.1872      4.5638      4.4174
H     10.0632     -0.3562      7.5738
H      6.9208     -2.4973      6.1224
C     15.0438     -6.1943      8.6727
C     -1.4471      5.2870      5.9351
C      3.1267      1.1140      2.1049
C      1.4907      4.4158      5.7953
C     14.7833     -6.4852      7.1848
C     15.1655     -8.4780      0.2865
H     11.4597     -7.0908      1.2514
H      3.6862      2.8438      0.7806
H      2.6638      0.5219     -0.2603
H     11.3860     -1.3231      6.0661
H      5.8432      0.9638      3.7240
C     12.1558     -3.8651      4.9572
C      9.3097     -6.1688      9.7775
H      4.1873      5.6980      1.2727
H     21.5141      9.7343     13.7353
C      8.4766     -1.3315      7.5164
H      9.8679      6.7825      1.9149
H      9.0031     -2.4045      5.1417
H      6.4436      1.3315      9.4608
C     12.4138     -5.5495      7.6330
C      0.5791      3.2724      5.3553
O      7.8314      5.4623      4.3518
C     11.1849     -5.1108      5.4797
C      6.2678      1.7606      7.2148
C      5.3349      2.0253      6.3071
C      3.1969      0.7726      6.0230
H      7.1250      6.5343      6.6437
H      5.9744      3.9785      7.9733
H      8.2496     -3.9926      7.9282
H     12.8692     -4.0799      6.6272
H     19.0285     12.1263     18.4539
H      1.7544     -1.1367      9.5428
C     14.7421     -8.1929      7.2637
H     -1.2352      4.0915      1.7545
C      3.7615      5.2479      5.0430
C      3.4701      2.9142      9.0822
H     20.4856     10.6572     14.9638
C      8.6059      7.6675     10.7181
H      4.2516      6.1548      8.4184
H     10.3924      6.2847     11.4151
H      7.2696      2.2245      7.4706
C      3.6762      2.8792      4.7539
C     17.7743      9.2631     18.2510
C      6.6514     -0.3611      8.4565
C      7.4021     -3.4268      7.4251
C      5.7444      4.9472      7.7351
C      5.9920      1.1519      8.4993
H     -0.5089      3.8591      8.1095
H     10.0464     -4.5638      9.4301
H      0.2654      3.6648     -0.1760
H     19.3795      9.5405     12.9640
H      8.2324      6.2536     11.6540
H     -1.0172      2.5082      6.0211
C     14.2943     10.4455     14.1220
H      2.9030      4.8240      9.7019
H      9.5748     -3.1204      3.3780
