260

C     19.7967      8.4842     13.4595
N     10.5197     10.7584     14.5624
C      3.6635      1.5943      7.0529
C      2.3497      2.4064      1.8473
C     -5.1902     17.7893      2.4699
H     -3.3528      6.8777      2.5778
C     -5.0781     16.2753      2.8116
C      3.3713      3.9651      5.2035
C     16.2269      7.1842     19.4107
C     -6.8290     14.5701      4.1221
C     -7.2924      8.2886      9.5828
C     13.4592      8.9539     13.8776
N      0.2596      2.7457      6.0594
C      0.2210      5.8174      0.1136
O     -1.1700      2.3793      1.7534
C      3.2500      3.9294      6.7379
H     13.2436      6.9400     12.1187
C     15.8476      6.3236     17.1589
C     16.9610     10.4761     16.8253
H    -11.8702     14.4343      9.4988
H     -2.3929      2.7457      4.8215
H     17.5376      7.1846     14.8415
C     17.4056      9.1657     16.1486
H     -9.0156      6.5657     10.3965
H     -7.6247      8.8016     10.5401
H     -1.0854      5.5199      7.0034
H      6.4448      1.8013      9.2060
C      2.9501      2.7538      7.6220
H     -5.9991     14.7051      4.8386
O     14.4664     10.3735     15.4282
C     -4.9986     12.9646      8.0642
C      6.2395      5.9631      9.6280
H      3.0793     -0.4576      6.3141
H      4.1613      5.3107      8.0888
C     -6.4999     15.8244      3.2314
H      5.9725      3.3324      7.2397
H     -8.6877     10.1105      8.8724
H      3.1142      6.4342      8.6878
C     17.6417     11.1565     17.9588
C     -2.9048      8.7211      4.8452
O      2.2099      8.5172      4.6592
C     -1.4151      8.3462      6.7979
C      8.8507      7.8656     11.6704
C     20.6231      7.4484     12.8597
C     -6.2065     19.4589     -0.7392
H     -7.5557     17.3499      1.9564
H     17.1320      9.5322     14.1581
H      1.1031     -0.6689      5.4482
H     -5.1636      5.5344      8.5275
H     14.9959      9.9545     12.5635
C      7.4078      2.5888      9.2755
H      0.6676      1.3667      2.3470
C      7.0732      6.4160     10.7708
C     -4.5738     18.6619      3.1433
H     -4.4207     20.9700      1.9581
C     -0.9941      6.9049      4.9118
H     15.5281      8.3448     20.7621
H      3.5998     -0.5007      2.4883
H     14.4982      6.7968     13.7086
C     -3.2446     11.4787      7.2565
C      6.4718      4.8637      8.8879
C     16.2411      7.7298     17.7732
C     -7.8167     17.9801     -0.1520
C     17.9390      9.1077     14.8132
H     -3.3110      7.5660      5.0566
H     -4.6054     20.6849      3.8330
H     -9.2224     14.4713     10.6495
H     18.1652     12.3356     16.3674
C     -0.5639      3.3593      8.4758
H     21.8927      9.6862     13.7254
C     12.5527      8.6860     12.5074
C      1.7369      1.9245      7.6994
H     11.1111      7.5415     10.5067
C     -0.4563      6.2270      1.3929
H     -7.1538     20.0599     -0.5002
C     10.1946      7.6039     12.4160
O     15.1841     10.6046     13.3612
C     -6.4848      8.4804      8.5531
C     16.3672      8.6175     20.1214
C     -9.5622     14.7162      9.5504
C      2.3292      1.0317      5.1002
H     10.5627     10.1627     15.4852
H     -7.2955     12.5465      7.4003
H    -11.3883     16.6848      9.7243
C      4.0069      3.4639      2.9885
H     -3.4223      7.3940      6.8092
C     11.0935      8.8127     13.2734
C     11.2382      7.1200     11.5268
H     -2.2935     11.1493      5.2350
C     -7.9458     15.0415      4.9088
C    -10.6775     12.6931      8.8273
C     -8.4128     11.2766      8.5745
C     -2.1905      5.1890      3.9218
C     16.6242      9.7048     19.0741
C      2.7328      3.6457      2.4634
C     -8.0708      6.8388      9.6719
H     15.7830      8.6707     13.7538
H     -3.3649     17.6858      4.8274
H      0.9095      3.9182     -1.1819
O     -6.9542     19.7473      6.5267
C      0.6901      8.1136      4.3849
C     -2.6784      8.8484      3.4737
C     -2.3557      7.4554      2.9767
H     -6.9845      7.6419      8.0404
H     -4.3577     16.5720      3.8552
C     -2.7381      8.1311      7.4291
H      2.3732      4.1516      5.0481
H     12.2177     10.3043     11.1935
H     -9.4545     17.0742     -0.1030
H      0.2459      3.1406      9.1640
C      3.2694      1.2316      2.1914
C     -0.0106      8.6877      2.2735
O     -8.5761     16.7869     -0.0513
O      7.6025      4.1959     10.6812
C      0.0408      2.9307      1.5550
C      0.5101      3.8392      3.8991
C     -5.7974     10.7629      7.4637
H     -3.1026      9.1244      7.8753
H     15.6221      9.8550     18.7557
H      0.0630     10.1255      4.3746
H     13.1366      7.8371     10.8186
O      0.6470      9.8270      6.2233
C     -6.9358     11.6775      8.0762
C      0.7341      7.0884      6.5494
C     14.8875      7.9410     14.1143
H     15.4130      8.7508     15.6625
C      0.6592      7.6167      3.0245
H     -4.2423     13.2776      8.8785
C      2.1358      0.1187      4.1353
C      0.2698      2.4699      7.4636
C     -2.9671     10.8010      6.0572
C     -2.4838      3.3832      5.7059
C     18.0276     12.5447     17.4526
C    -10.1709     17.0688      9.5684
C      0.9546      1.8301      1.4777
C     -1.4560      8.0774      1.7817
C     -9.3427     12.5579      8.7778
N      1.3035     -0.8338      4.4207
C      3.3066      0.8619      0.6388
O     16.9949      6.2905     14.9639
C     -3.2032     19.3874      0.4233
H     18.5509      9.2952     19.5548
C     -2.5009      4.5149      2.7315
C     -2.4067      7.6526      8.7277
H      8.3229      2.0780      9.5695
H      1.5328      0.8475      7.1652
H      6.7231      3.4694     10.7962
H     -4.6699      9.0704      8.5837
C     10.2471      9.9537     13.4892
H      1.6413      7.7683      8.9899
H      0.5967      9.5786      2.6360
H     13.5977     10.5740     12.1887
H      4.4156      1.0934      0.2417
H     -1.5939      3.0065      8.8100
C     14.9305      7.5839     15.4767
H      2.7889     -0.1763      0.6742
C     13.1815      9.8656     11.6134
H      1.6372     -1.7118      4.1574
C     -8.3825     20.8720      3.9893
C     -4.7765     20.0850      2.8581
C     20.8172      9.6595     14.2602
C     18.9164      8.1128     14.5215
C     -8.3485     19.0120      6.2922
C      1.9256      4.9075      2.2081
C     -6.3421     18.2518      0.1514
C     -7.1411     19.9970      3.8463
C     -4.5696     19.4645      0.8242
C      4.5359      4.7339      7.3135
C      1.3126      5.1212      0.5424
H     -2.9864      6.0949      6.2585
C     -6.3025     19.8807      5.2968
H      0.5661      1.9750      5.3869
H     -2.5673      5.0577      1.7703
C     -5.7056     18.5725      1.3173
H     -0.1251      3.3507      3.3605
O     -5.2461     20.1654      5.3463
H      8.6115      8.9154     11.6617
H     20.4640     10.1689     13.3902
H      1.2406      2.9474      3.7419
H      9.9570     11.6226     14.2891
H      2.1473      4.7552     -1.2199
H      5.1407      5.8736      4.1568
C     12.6226      7.5102     11.7164
C     15.6525      6.3266     15.6311
H      1.4519      6.0836      9.1015
C     -1.8017      4.7238      5.1519
C      0.4551      6.9524      5.1402
H     17.2039      8.4018     20.8371
H      2.8761      1.7898      4.5086
C      1.3366      5.8580      4.5687
H    -11.5817     12.1611      8.8739
H      1.8439     -0.4972      2.5736
H     16.0155     11.0220     16.5723
H     -0.1888      7.4380      8.1286
C     -4.2595      6.1643      8.2987
C     -8.7208     13.8961      8.4249
C     -6.4244     20.2649      2.8565
C     -3.6680      9.7754      5.7668
C     -0.1921      6.3966      2.7696
C     -1.5751      6.4459      3.6582
H      1.9053      3.0160     -0.0569
H     -8.1629     18.4514     -1.0290
H     -1.7363      3.0625      6.3609
C    -11.0287     14.1705      9.0114
H     -1.2870      9.5087      7.0003
C      0.7956      5.2479      3.3588
C     -7.7343     16.2570      2.1744
H      1.3885      4.7945      7.7208
H     -5.1063      8.6890      7.0643
C      7.3145      3.9222      9.4338
H     -2.8726     12.3924      7.5751
H     -6.0147     10.5236      6.5349
C      1.9442      6.8350      8.4936
C     -1.8210      5.7953      6.0800
C      2.7508     -0.0161      2.8296
C      1.1568      4.9666      5.7732
C      1.9613      6.5848      7.1021
C      1.6733      4.0870     -0.4236
H      2.7059      1.8891      0.2759
H     -4.6868      6.2180      7.1330
H     -6.5530     13.7109      3.4856
C     -0.1028      9.2498      5.0674
C     -3.6448      7.1683      9.3939
H     -8.3422     18.4979      0.7117
H     -3.5006      9.2270      2.7312
C     -4.6235     11.6711      7.7892
H     -3.4333      4.0276      3.1285
H     -4.5119      9.3923      6.2966
C     -0.2227      7.6488      7.1275
C      0.5034      3.9153      5.4097
O     -4.2255     18.2790      4.6362
C     -1.4882      8.4005      5.2264
C     -6.7658     14.5250      7.1882
C     -7.9815     14.6199      6.3326
C      2.7352      0.5103      6.3557
H     -8.6313     16.5257      8.5701
H     -6.1828     12.7181      9.9555
H      1.2710      9.1776      5.8471
H     18.9866     13.1304     17.6945
C      2.0502      5.0936      6.9256
H      0.0804      4.0997      1.4476
C      4.1041      5.4730      4.8459
C     -9.4699     16.0721      8.9854
H     20.5415     10.2347     15.2338
H     -0.2949      5.0926     -0.2843
C      8.2712      7.4266     10.3996
H     -9.5100     17.2286     10.5027
H     11.5642      6.0324     11.6302
C      4.1345      3.0069      4.4845
C     17.7797     10.1959     18.9992
C     -6.4198     12.8585      8.8268
C     -5.5077      9.1782      7.8814
C      5.7290      4.1884      7.7884
C     -7.2697     14.1049      8.4492
H     -0.6340      4.2892      7.9499
H     10.1961     10.4428     12.4388
H     -3.1195     18.1883      0.1054
C     14.2046     10.1619     14.1377
H    -10.1363     18.0579      9.0444
H     -1.7162      9.6713      3.7366
