267

C     19.7242      8.4202     13.4720
N     -3.2218     10.2142      2.1964
C      3.8640      1.6230      7.3257
C      2.4148      2.6533      2.1969
C      7.4410      4.5873      2.1409
H     -3.0040      7.0720      2.8364
C      7.5235      3.0587      2.1644
C      3.4826      4.0732      5.4864
C     16.2478      7.1677     19.4661
C      6.4616      1.7023      4.0634
C     -6.7873      8.2913      9.2833
C     13.3753      8.9423     13.8843
N      0.2217      2.5122      5.8905
C      0.7757      6.2034      0.8687
O     -0.9444      2.6695      1.0214
C      3.1843      4.0034      6.9387
H     13.2575      7.1409     12.0892
C     15.5983      6.2907     17.3820
C     17.2992     10.5240     16.1551
H    -11.6016     13.8096      9.8464
H     17.4101      6.9857     14.6948
C     17.1331      8.9665     16.1582
H     -8.1996      7.4447     10.5301
H     -6.1003      8.2599     10.2622
H    -10.8081     17.8435      9.8192
H     -2.3754      6.6613      6.7792
H     -6.5892     14.6542      8.7836
C      3.0736      2.8553      7.8066
O     14.0479     10.4239     15.7453
C     -5.2148     12.3367      9.1318
C      6.3066      6.0792      9.4527
H      2.8247     -0.1848      6.4995
H      3.5949      5.1842      8.1459
C      6.5697      2.6405      3.1917
H      5.2604      3.4505      8.0351
H     -9.0386     12.4052     10.0536
H      2.8849      7.5303      9.2033
C     17.5305     10.9357     17.3938
C     -3.1002      8.7664      5.1293
O      1.9219      8.6918      5.0252
C     -1.3199      8.3952      7.1204
C      8.7793      7.7356     11.7852
C     20.6226      7.4516     12.7341
C      6.5587      6.4499     -1.0035
H      5.5186      4.6989      2.2615
H     17.2792      9.6053     14.0746
H      2.3685     -1.9704      5.2897
H     -5.5545      6.6802      8.3803
C      8.1678      2.8462      8.5444
H      1.2860      1.3959      0.9745
C      7.2152      6.2064     10.4698
C      7.8722      5.5840      2.9616
H      8.1827      7.4664      1.8533
C     -1.0395      6.6189      5.2862
H     16.0952      8.8726     20.8951
H     17.0396     11.1414     15.3816
H      2.6872      5.4735      0.6737
C     -3.5054     11.2863      7.5274
C      6.3553      4.8396      8.7591
C     15.9906      7.5817     18.1350
C      4.7468      5.2944     -0.4314
C     17.7926      8.9019     14.7567
H     -3.6040      7.8877      5.6211
H      7.7036      7.2164      3.7522
H     -9.5732     14.6010     10.8080
H     18.7291     12.0803     16.3688
C     -0.4830      3.5947      8.0936
H     18.8290      9.8203     14.4906
C     13.2855      8.9668     12.4111
C      1.6358      1.8533      7.9179
H     11.1063      7.0431     10.8932
C     -0.6239      6.2927      1.5693
H      5.4684      7.0961     -1.3209
H     19.1603      8.7346     12.5944
C     10.3390      7.2502     12.5978
O     15.5139     10.2473     13.9968
C     -5.7205      8.6273      8.3210
C     16.7958      8.4697     20.0473
C     -9.5210     14.5669      9.4874
C      2.5520      1.2339      4.9164
H     -2.6092     10.5583      2.9171
H     -3.5362     11.2082      1.9638
H     -6.9815     12.7118      6.6265
H      2.2823      5.9963      9.1289
C      4.1756      3.1568      3.2826
H     -2.7239      9.9041      7.6214
C     -2.5241      8.1618      0.9072
C     11.4501      7.0206     11.8947
H     -3.1649     11.8833      5.8932
C      5.5099      2.0469      5.0622
H     17.0535     12.7821     17.2809
C    -10.7226     12.2888      8.7232
C     -8.5759     10.9883      8.2704
C     -2.2271      5.0100      4.1021
C     16.5123      9.6485     19.2555
C      2.9104      3.7633      2.7411
C     -7.6663      7.2182      9.4530
H    -11.0912     12.3425      9.7778
H     15.5338      7.6692     13.4238
H      8.1498      4.2501      4.1558
H      0.2220      4.1974      0.0905
O      5.7586      6.6009      6.4294
C      0.6142      8.2403      4.5097
H     -8.8490     10.8240      7.2385
C     -2.9263      8.4768      3.6688
C     -2.1601      7.3896      3.2938
H      8.4736      2.5806      2.1537
C     -2.5122      8.7547      7.6822
H      2.4963      3.9887      5.0363
H      3.3950      3.6631      0.3763
H     -0.3343      3.1145      9.0779
C      3.3785      1.3180      2.0258
C     -0.2952      8.5757      2.1339
O      4.4069      4.1184      0.3271
O      7.8642      3.8959     10.5728
C      0.0004      2.9230      1.6579
C      0.2542      3.9107      3.9157
C     -6.0917     11.0172      7.2684
H     15.6532     10.4355     19.3696
H     -1.1440      9.6955      4.2424
H     12.4318      8.4705     10.6992
O      0.1596     10.1644      5.8020
C     -7.2395     11.2701      8.2385
C      0.6777      7.1197      6.6562
C     14.5579      7.6556     13.9342
H     15.4520      8.1608     15.9103
C      0.4439      7.6872      3.0280
H     -5.0117     13.4406      9.3837
C      2.4969     -0.0113      3.9177
C      0.5524      2.7527      7.2924
C     -2.8756     10.9569      6.2881
C     -2.2162      3.2156      5.6136
C     18.0353     12.4056     17.3175
C    -10.3509     16.9235     10.3083
C      1.3201      2.1322      1.7554
C     -1.5537      7.7060      1.9063
C     -9.2293     12.3298      9.0356
N      2.4009     -1.5349      4.1781
C      3.7526      1.1786      0.3832
O     16.9082      6.2400     15.2316
C      9.6026      6.0885      0.6393
H     -6.5664      9.1835      6.3833
C     -2.4478      4.3699      2.9052
C     -2.9830      8.3439      9.1233
H      8.0581      2.8167      7.4196
H      1.7344      0.9187      6.9732
H     -4.7622      9.9921      5.9084
C     -3.3951      9.3199      1.0762
H     -8.6418      6.8332      9.1993
H      1.0399      7.1082      9.4417
H     -0.3978      9.5499      2.4438
H     13.5942      9.5930     10.4556
H      3.0089      0.6504     -0.2151
H     -1.5345      3.2669      8.1995
C     14.8714      7.4728     15.3482
H      4.2394      2.0753     -0.1874
C     13.5520     10.1605     11.7332
H      7.9462      5.3053     10.8234
H      3.0430     -2.0840      3.7946
C      4.2703      8.2443      4.4606
C      7.6240      7.0400      2.7807
C     19.9076      9.7551     13.8721
C     18.8256      7.8406     14.4594
C      4.3068      6.2253      6.3089
C      2.0761      5.0443      2.6585
C      6.1346      5.5191     -0.0776
C      5.6017      7.4476      4.1236
C      8.2190      6.2624      0.5667
H     14.3418     10.7494     11.9830
C      4.1795      5.0665      7.4109
C      1.7314      5.1785      1.1007
H     -3.7396      8.7334      7.2134
C      6.3041      7.1016      5.3134
H      1.7096      1.8886      4.6690
H     -2.1150      4.9062      1.9685
C      7.1705      5.3956      0.8829
H     -0.6797      3.4760      3.6582
O      7.4657      7.3313      5.2930
H      8.5642      9.0379     11.4193
H     20.4145     10.2881     14.7209
H      1.0656      3.1621      3.7066
H      1.7765      4.6046     -0.6417
H      7.9740      1.9262      9.1562
H      4.7196      5.6866      4.2209
C     12.5198      7.8524     11.7534
H      6.3106      3.9911      6.9658
C     15.6681      6.2814     15.8959
H     -0.3352      7.4331      8.8164
C     -2.3601      4.5696      5.4565
C      0.3812      6.9177      5.2349
H     -7.2515      9.3211      9.2752
H      3.2710      1.7359      4.3821
C      1.2611      5.8314      4.8186
H    -10.8351     11.4213      7.9869
H      3.0532     -0.3681      1.7454
H     13.5067      9.6496     16.4826
C     -4.8766      7.3846      8.0974
C     -8.6876     13.7357      8.5244
C      6.2427      7.5652      2.8464
C     -3.6798     10.0370      5.4215
C     -0.1354      6.2741      3.0275
C     -1.3663      6.3095      3.9379
H      1.8653      3.0480      0.0523
H      4.4110      5.0929     -1.5508
H     -2.2692      2.7768      6.7138
C    -10.9229     13.8391      9.0886
H     -1.6648     11.4191      6.0192
C      0.9260      5.1593      3.4190
C      5.4598      3.4108      2.6782
H      1.2421      4.8005      8.2035
C      7.5355      3.8435      9.3234
H     -2.5309     11.6295      7.9246
H     -6.3429     11.3232      6.0856
C      1.9596      7.0355      8.8357
C     -1.8427      5.6645      6.2041
C      2.5921      0.0763      2.5381
C      0.9661      4.9426      5.8923
C      2.0579      6.5756      7.1716
C      1.5356      3.9817      0.3308
H     -1.2761      5.6651      1.2061
H      4.4231      1.6436      2.5824
H     -2.6672      8.6940     10.1087
H      4.4684      0.4618      0.3563
H     -5.1046      7.5253      7.0259
H      9.1704      2.9259      8.4258
H      6.9953      0.6916      3.7740
C     -0.4605      9.1721      5.0425
C     -4.0880      7.5334      9.1655
H      4.1972      6.3188     -0.1882
H     -4.1523      8.6639      3.2422
C     -4.7641     11.4446      8.0714
H     -3.5204      3.9035      2.2982
H     -3.6281     10.5182      4.4345
C     -0.3151      7.6095      7.6318
C      0.6106      3.5874      5.2655
O      8.5972      5.0537      4.0237
C     -1.4544      8.3208      5.6435
C     -6.6021     13.6385      7.0129
C      5.1988      1.6852      6.5139
C      2.9941      0.9650      6.3437
H     -5.4168     13.8619      6.8229
H     -8.6650     16.4899      9.2402
H     -5.0865     11.6158      9.9963
H      0.0086     10.8671      5.2714
H     18.7175     12.8377     18.1113
C      1.7986      4.9712      7.1397
H      0.0002      4.0850      1.8594
C      3.8737      5.4508      4.9799
C     -9.6135     15.9779      9.2919
H     20.4029     10.6284     13.1733
H      0.9421      6.3076     -0.2657
C      8.5038      7.0655     10.5093
H    -10.9271     16.2370     11.0820
H     11.8163      6.1673     12.0812
C      4.2496      2.8292      4.6148
C     17.4198      9.7753     18.2561
C     -6.7724     12.3093      9.1452
C     -6.0647      9.6235      7.2437
C      5.5065      4.4820      7.6665
C     -7.1021     13.5662      8.4835
H     -1.0320      5.2012      6.9755
H     -4.1636      9.5879      0.3111
H     -7.0168     11.8683     10.0956
H     10.2489      5.2352     -0.0288
C     14.4439      9.9260     14.4151
H     -9.3718     17.3954     10.2223
H     -2.4939      9.4077      3.4685
267

C     19.6749      8.4883     13.4028
N     -3.3061     10.2897      2.1409
C      3.8633      1.6882      7.3975
C      2.4497      2.6010      2.1999
C      7.4103      4.6320      2.0373
H     -2.9494      6.5022      2.8760
C      7.4857      3.0190      2.1884
C      3.3687      4.0544      5.3410
C     16.2127      7.2318     19.4347
C      6.4181      1.7200      3.9624
C     -6.7290      8.2625      9.3285
C     13.4252      8.9359     13.8984
N      0.1922      2.4360      5.9479
C      0.7558      6.2187      0.9072
O     -0.9658      2.6434      0.9536
C      3.1585      4.0966      6.8710
H     13.1953      7.0891     11.5835
C     15.5393      6.3480     17.3238
C     17.2950     10.3534     16.2987
H    -11.3982     13.7962      9.9841
H     -2.1967      2.4705      4.9050
H     17.6707      6.5096     14.9330
C     17.1558      8.9681     16.1187
H     -8.2977      7.1558     10.5913
H     -6.2383      8.1566     10.2535
H    -10.8012     17.4254      9.6076
H     -2.3936      6.7225      6.7401
H     -6.5224     14.6429      9.0399
C      2.9784      2.9005      7.7854
O     14.0680     10.4769     15.7561
C     -5.1722     12.2798      9.0086
C      6.3200      6.0778      9.5472
H      3.0607     -0.2475      6.3921
C      6.4555      2.7100      3.1464
H      5.4243      3.3053      7.9510
H     -9.0951     12.2928     10.3591
H      2.6996      7.4945      9.5205
C     17.5501     11.0295     17.5429
C     -3.0112      8.6640      5.0801
O      1.9565      8.6600      5.0463
C     -1.4334      8.4262      6.9829
C      8.8944      7.7428     11.6897
C     20.5670      7.5806     12.7514
C      6.6207      6.5423     -1.0259
H      5.2925      4.6442      2.0956
H     17.4766      9.3622     13.9320
H      2.4155     -1.9346      5.2674
H     -5.8175      6.7018      8.2711
C      8.1352      2.8587      8.5324
H      1.1900      1.3789      0.8449
C      7.2853      6.2091     10.6120
C      7.8898      5.6299      2.9363
H      8.3719      7.5461      1.8438
C     -1.0369      6.7096      5.2767
H     16.3414      8.7986     20.9683
H     17.3972     10.7702     15.3003
H      2.6782      5.7553      0.5991
C     -3.4236     11.3696      7.5945
C      6.2595      4.8375      8.7353
C     15.9368      7.5078     18.0065
C      4.8565      5.2109     -0.4465
C     17.7720      8.9046     14.7994
H     -3.5048      7.8284      5.5483
H      7.7873      7.1609      3.9125
H     -9.5625     14.4447     10.5845
H     18.7455     12.5163     16.6003
C     -0.5004      3.5740      7.9866
H     18.9596     10.0298     13.9530
C     13.4198      8.9435     12.5236
C      1.5914      1.8895      7.8658
H     10.7641      6.8028     11.0226
C     -0.5620      6.3462      1.6280
H      5.9167      7.2120     -1.0346
H     18.7483      8.4048     12.8523
C     10.2288      7.2607     12.7063
O     15.5255     10.2951     13.9636
C     -5.6010      8.6568      8.2631
C     16.6589      8.4061     20.0726
C     -9.5319     14.5308      9.4499
C      2.5766      1.2328      4.8539
H     -2.7657     10.6693      2.9434
H     -3.8823     11.0618      2.1590
H     -6.6220     12.7310      6.6235
H      2.0798      5.9968      9.0338
C      4.1589      3.3137      3.2644
H     -2.8686      9.9060      7.6952
C     -2.4466      8.2160      0.7062
C     11.4361      6.9766     11.9776
H     -3.1175     11.9011      5.9892
C      5.4215      2.0519      5.0710
H     16.9390     12.9910     17.2170
C    -10.6954     12.3038      8.7119
C     -8.5078     11.0263      8.4202
C     -2.1898      4.9864      4.1384
C     16.4723      9.6860     19.3643
C      2.9867      3.8100      2.7846
C     -7.6439      7.2509      9.6205
H    -11.3109     11.9524      9.7167
H     15.4766      7.4425     13.4929
H      8.2360      4.2329      4.1001
H      0.4484      4.2131      0.4046
O      5.7203      6.5235      6.3973
C      0.6629      8.1948      4.5177
H     -8.8240     10.7983      7.3416
C     -2.9851      8.4782      3.6697
C     -2.1385      7.3137      3.3250
H     -4.9787      9.2829      9.0045
H      8.4459      2.5729      2.1202
C     -2.5207      8.9068      7.6986
H      2.1861      4.0279      5.0855
H      3.4681      3.9511      0.2143
H     -0.5962      3.1697      9.0482
C      3.4525      1.2364      2.0257
C     -0.3691      8.5578      2.1089
O      4.3685      4.0914      0.3492
O      8.0424      3.9279     10.4656
C     -0.0254      2.9341      1.6062
C      0.2278      3.8985      3.8895
C     -6.0473     10.8668      7.3238
H     15.9193     10.6052     19.6878
H     -0.8256      9.8634      4.2041
H     12.7243      8.4716     10.8622
O      0.1417     10.1187      5.8901
C     -7.1972     11.2907      8.1137
C      0.7062      7.0292      6.7013
C     14.5076      7.5478     13.8617
H     15.4422      8.3294     15.7109
C      0.4551      7.7589      3.0552
H     -4.4387     13.0825      9.2525
C      2.6346     -0.0193      3.8752
C      0.3693      2.8529      7.4238
C     -2.9133     10.9137      6.2537
C     -2.3083      3.2864      5.5901
C     17.9961     12.3632     17.3422
C    -10.3956     16.8600     10.3815
C      1.2546      2.1328      1.8166
C     -1.5525      7.6615      1.9496
C     -9.2990     12.2516      9.0231
N      2.3277     -1.5090      4.2029
C      3.7115      1.2753      0.4556
O     16.8966      6.2268     15.1415
C      9.5827      6.0632      0.6433
H     -6.9046      8.9423      6.5382
C     -2.2902      4.2954      2.8376
C     -3.0168      8.4694      9.1678
H      7.7283      2.7333      7.3323
H      1.6899      1.2551      6.8392
H     -4.8451      9.5881      5.4768
C     -3.3735      9.2686      1.0943
H     -8.4406      6.9102      9.0208
H      0.9629      6.9649      9.2717
H     -0.4663      9.5496      2.6181
H     13.4792      9.9113     10.5792
H      2.7414      1.0941     -0.2595
H     -1.6177      3.7673      7.6904
C     14.7271      7.3968     15.3950
H      4.0262      2.2898     -0.0155
C     13.4518     10.1232     11.7614
H      7.8751      4.9876     10.7384
H      2.7986     -2.3396      3.8359
C      4.2412      8.1733      4.5221
C      7.6736      7.0419      2.7667
C     19.9581      9.7883     13.7976
C     18.8988      7.9762     14.5207
C      4.3053      6.1497      6.2712
C      2.0754      5.0495      2.5604
C      6.0228      5.6872      0.0180
C      5.5311      7.4522      4.2059
C      8.1670      6.3150      0.4974
H     14.5483     10.6332     12.3446
C      4.1807      5.0252      7.3810
C      1.7836      5.2132      1.0307
H     -3.6260      8.6772      7.3965
C      6.2898      7.0827      5.4646
H      1.5820      1.5349      4.4929
H     -2.3143      4.6132      1.9167
C      7.1484      5.4678      0.8421
H     -0.5351      3.4216      3.3685
O      7.5787      7.4393      5.3337
H      9.1932      8.8657     11.5168
H     20.3991     10.1331     14.5498
H      1.1003      3.2392      3.5821
H      2.0324      4.2503     -0.5619
H      8.0551      1.9252      8.9959
H      4.7319      5.5457      4.1592
C     12.6494      7.9299     11.8387
H      6.0792      4.1156      6.8335
C     15.5698      6.2630     15.9284
H     -0.0335      7.7124      8.7027
C     -2.2691      4.6207      5.4603
C      0.3974      6.9212      5.2804
H      3.4892      1.8463      4.4920
C      1.3094      5.7463      4.7122
H    -11.0809     11.6605      7.9468
H      2.6365     -0.7233      1.6760
H     13.5609      9.7408     16.2436
C     -4.8871      7.3803      8.0236
C     -8.6713     13.7104      8.5339
C      6.2971      7.5914      2.8167
C     -3.7284      9.9964      5.4324
C     -0.1475      6.2413      3.1174
C     -1.3514      6.3435      3.9456
H      2.0919      3.1613     -0.0281
H      4.9632      5.1174     -1.6238
H     -2.3411      2.9117      6.7965
C    -10.8513     13.7957      9.1176
H     -1.8571     10.8299      6.0045
C      0.8165      5.1779      3.4716
C      5.4389      3.4229      2.5498
H      1.4503      4.5927      8.2591
C      7.4903      3.8739      9.2389
H     -2.6030     12.0573      8.2604
H     -5.9496     11.5915      6.6618
C      1.9165      7.0214      8.8297
C     -1.7895      5.7330      6.2887
C      2.6091      0.0061      2.5314
C      0.9224      4.8127      5.9417
C      2.0397      6.5657      7.1543
C      1.5703      4.0110      0.3344
H     -1.3521      5.5454      1.0635
H      4.3533      1.6441      2.5093
H     -2.5120      8.4215     10.0421
H      4.6767      0.7260      0.2176
H     -4.8377      7.5055      7.0303
H      9.3206      2.9749      8.5424
H      7.1137      0.8602      3.9593
C     -0.4460      9.2084      4.9755
C     -3.8992      7.5085      9.1941
H      4.2256      6.1964     -0.3557
H     -3.9715      8.5275      3.2577
C     -4.6944     11.3451      8.1084
H     -3.1623      3.6678      2.7227
H     -3.7596     10.7112      4.6303
C     -0.2855      7.6418      7.5705
C      0.6137      3.6379      5.3078
O      8.6648      5.1051      4.0234
C     -1.5488      8.2453      5.6508
C     -6.5929     13.7540      7.1354
C      5.2542      1.7314      6.5258
C      2.9600      1.0919      6.4032
H     -5.5577     13.6113      6.9366
H     -8.5652     16.6240      9.3268
H     -5.0379     11.6810     10.2565
H      0.3198     10.8650      5.4185
H     18.4123     13.0911     18.0362
C      1.8500      5.0001      7.1009
H     -0.1923      4.1095      2.0216
C      3.8636      5.3776      4.9923
C     -9.6205     16.0263      9.2725
H     20.3110     10.5812     13.1591
H      0.9024      6.3101     -0.1679
C      8.4728      7.0060     10.4921
H    -10.9210     15.8195     10.6731
H     11.8792      6.1869     12.2156
C      4.2273      2.7824      4.5476
C     17.3506      9.7351     18.2803
C     -6.7055     12.1802      9.2305
C     -6.0783      9.5038      7.2843
C      5.4635      4.4476      7.6426
C     -7.1620     13.5503      8.5865
H     -1.1123      5.2550      7.0343
H     -3.9915      9.2336      0.3256
H     -6.9346     11.8712     10.1810
H      9.9232      5.3860     -0.2264
C     14.4096      9.9009     14.4230
H     -9.4570     17.3946     10.9637
H     -2.2559      9.2001      3.4026
