265

C     20.2019      8.9037     13.9863
C      3.9752      1.4778      7.2778
C      2.0958      2.7578      1.5271
C      7.2493      5.0869      2.5081
H     -3.5919      3.4897      3.1802
C      7.3124      3.6378      2.6349
C      3.2878      3.7555      5.4472
C     -6.0368     10.2145     10.5099
C     16.3304      7.1869     19.5421
C      5.9374      1.5764      4.0185
C     -6.8862      9.2485      9.5256
C     13.7630      8.5851     13.6670
N     -0.2275      2.8178      6.4617
C      0.5440      6.3297      0.6082
O     -1.5695      2.5536      1.5309
C      3.1492      3.9798      6.9657
C     15.6146      6.1485     17.5440
C     16.6470     10.4268     16.7571
H    -11.6912     13.2668      9.4564
H     -3.6907      3.6537      4.9191
H     17.3697      5.8071     16.2109
H     -7.0508     10.2804     12.2520
C     17.1247      9.0855     16.4092
H     -8.4933      8.5914     10.7673
H     -5.5508     10.9390      9.6494
H      7.7915      2.9492      3.4284
H     13.0049      7.0816     10.6508
H     -0.7979      5.3034      6.3704
C      2.9760      2.6963      7.8747
H     -3.2778     10.1771     -0.4048
H      7.0475      1.2189      4.1598
O     15.2946     10.1025     14.6396
C     -4.8549     12.7287      8.6134
C      6.7560      6.0195      9.6297
H      2.9767     -0.3642      6.3079
H      2.8923      6.7793      9.5560
C      6.1634      2.6177      2.9335
H      6.0403      4.9487      7.3829
H     -5.6494      9.4123     11.3300
H     -7.7641     10.2683      8.6467
H     -8.1798      7.3504      9.7093
C     17.5784     10.8536     17.9691
C     -2.9065      8.8527      5.1405
O      1.9342      8.6004      5.1767
C     -1.5673      7.9909      6.9619
C      8.5962      7.9770     12.2796
C     20.4153      7.5994     13.1564
C      6.3062      7.2212     -0.7362
H      4.9183      4.2157      2.2002
H     17.5265     10.1178     14.9394
H      1.2945     -0.8176      2.7278
H     -4.5286      5.3329      8.5999
H     15.4777      9.7944     15.7312
C      7.0199      6.5795     11.0403
C      7.9950      5.7820      3.3489
H      8.3680      7.2985      2.1107
C     -1.0553      6.8051      5.1046
H     15.4919      8.6226     20.6114
H      4.5071      0.7226      2.0636
H     -7.0418     12.0741     11.8015
H     14.9787      6.6405     13.7977
C     -2.9151     11.1659      7.8648
C      5.4420      5.4848      9.1078
C     16.0709      7.5765     18.1625
C      4.4637      5.8298      0.4516
C     17.8396      9.1012     15.2569
H     -3.7985      8.2517      5.4058
H      8.6052      7.5303      3.9707
H     -9.2231     14.2105     10.7750
H     -6.6678     11.8302      9.3334
H     17.6398     12.1169     16.1200
C     -0.1133      3.7677      8.6453
C     13.3010      8.7445     12.3182
C      1.6307      1.8258      7.8036
H     -1.8007      7.5216      9.5562
C     -0.6516      6.4797      1.4526
H      5.8815      8.2744     -0.4756
H     -2.1411      2.7149      4.5802
H     -7.9660     11.0786     11.0086
C      9.9977      7.5026     12.8180
O     14.3458     11.2079     13.1547
C     -6.2407      8.8262      8.2348
C     16.5055      8.3473     20.3615
C     -9.4640     14.4254      9.7008
C      2.7423      1.3494      4.7996
H     -1.5640      9.9139     -1.0741
H     -6.7547     12.0643      6.5858
H     -9.4956     17.2995     11.1605
C      3.6999      3.0681      3.1594
H     -4.2031     10.1795      5.4483
C     -2.0581      8.6195      0.5626
C     11.2136      7.1341     11.9001
H     -1.6560      9.8525      7.0065
C      5.0482      2.0966      5.1205
H      4.2685      0.0813      5.3833
H     -4.2821     13.0936      7.7745
C    -10.2388     12.1200      8.4711
C     -7.9340     11.1193      8.1208
C     -2.2291      5.2332      3.4866
C     16.9784      9.4301     19.5448
C      2.2651      3.5622      2.8213
C     -8.0320      8.5137      9.8471
H     15.6827      8.3493     13.6525
H     -3.1479      4.4619      1.6575
H     14.0762     12.0365     12.6677
H      1.7709      3.8163     -0.5051
O      5.9534      6.3167      6.4828
C      0.5641      8.1116      4.5097
H     -8.2425     10.6174      7.2288
C     -2.6266      8.9347      3.5956
C     -2.0609      7.8944      2.8534
H     -6.8238      8.5234      7.3300
C     -2.6989      7.4062      7.6300
H      2.2536      3.8358      4.9587
H     13.9317      8.8756     10.7065
H      6.3193      2.1221      1.8986
H      0.6085      4.4567      9.1267
C      3.1719      1.9846      1.0415
C     -0.0309      8.5240      2.1362
C     -0.5101      3.1034      1.6458
C     -0.4719      4.0995      4.3433
C     -5.3227     10.7482      7.3024
H     -3.6133      7.1696      7.0627
H     16.0662     10.2309     19.5351
H      0.1326      6.1485     -0.3589
O     -0.1120      9.8086      6.2715
C     -6.5506     11.6014      7.6109
C      0.8270      7.0887      6.7405
C     15.0112      7.7461     14.0872
H     16.0390      8.0535     16.1060
C      0.6343      7.6397      3.1181
H     -4.1759     13.1026      9.7522
C      2.5911      0.5246      3.5848
C      0.2656      2.3033      8.0911
C     -2.4686     10.6451      6.6700
C     -2.7815      3.4665      5.2483
C     18.0022     12.1399     17.3586
C     -9.8108     17.0765      9.8621
C      0.7570      2.6125      1.0105
C     -1.2867      7.8948      1.5391
C     -8.7772     12.2686      8.4182
N      1.6815     -0.4022      3.5374
H      3.8148      0.5638     -0.6248
C      3.0794      1.2306     -0.3705
O     16.8340      6.0908     15.5668
C      9.4957      6.4036      0.7803
H     18.9728      9.1573     18.6221
H     -0.6182      1.6605      8.0172
C     -2.8939      4.2913      2.7094
C     -2.6854      7.1282      8.9548
H      1.8002      1.1485      7.1109
H      7.2154      4.6382      0.7427
H     -5.0854      8.8802      6.7529
C     -2.3682      9.6591     -0.2279
H      5.0830      5.4720     10.2158
H      1.7352      8.2266      8.9973
H     15.3284      9.6596     12.1192
H      3.0231      2.0604     -0.9113
H     -1.0656      3.8025      9.6454
C     15.1650      7.4557     15.4949
C     14.2696      9.3212     11.6150
C     -7.0620     11.0770     11.4859
H     15.6279     10.2249     17.2094
C      4.4477      8.0453      4.5515
C      7.9923      7.1601      3.0814
C     21.0913      9.3798     14.8886
C     19.0308      8.4018     14.8631
C      4.2914      6.0432      6.4926
C      1.6587      4.9003      2.7176
C      5.8524      6.1178      0.4033
C      5.8679      7.5651      4.2617
C      7.9040      6.5730      0.9766
C      4.0142      5.0251      7.4178
C      1.3234      5.1886      1.2660
H     -2.4216      5.8950      6.5382
C      6.6250      6.7025      5.3751
H      9.6220      5.7387     -0.0309
H      0.5266      1.4956      1.2578
C      6.9454      5.5647      1.0864
H     -0.3742      3.2072      3.7368
O      7.8240      6.8360      5.3901
H      8.5479      9.2588     11.9269
H     -0.2627      9.4907      2.5504
H      3.3704      4.7184      0.3231
H      4.9095      5.3327      4.4223
C     12.4144      7.6615     11.4799
C     15.5750      6.0710     15.9491
H      1.3651      6.3614      9.1789
C     -1.9027      4.5298      4.7540
C      0.6090      7.0187      5.2947
H     17.1901      8.7071     21.4996
H      1.8549      1.8849      5.1376
C      1.1585      5.7354      4.8361
H      2.8675     -0.1597      1.3892
H     16.4079     11.2213     16.0262
H      0.2528      7.0228      8.6704
C     -5.0187      6.2744      8.8485
C     -8.4031     13.6822      8.6196
C      6.6059      7.5582      3.0458
C     -3.1452     10.3476      5.4613
C     -0.2633      6.3227      2.9151
C     -1.3914      6.6407      3.5943
H      3.6801      6.5094      0.1423
H     -2.4639      3.3241      6.5674
C    -10.7601     13.5628      8.8392
C      0.3724      5.0939      3.6732
C      4.9219      3.5132      2.8133
H      1.5233      4.2641      7.8146
H     -5.9111      7.7824      8.5987
H     -2.1390     12.1278      8.0793
C      2.1719      6.9354      8.7595
C     -1.6507      5.6907      5.7744
C      3.2736      0.6687      2.0197
C      0.9718      4.8539      5.9512
C      1.9935      6.5604      7.3779
C      2.1904      4.2482      0.5154
H     -1.3345      5.5230      1.1563
H      4.1752      2.4163      0.9530
H     -1.4939     11.1895      6.3537
H      5.2013      1.0498      3.4286
C     -0.5481      9.1138      4.9926
C     -4.0321      7.0740      9.5761
H      4.3576      4.9938      0.9775
H     21.8809     10.1814     14.6284
C     -4.2513     11.4211      8.1566
H     10.0011      5.9242      1.4553
H     -3.1006     10.8647      4.5572
H     -6.9148     14.4476      9.6294
C     -0.3191      7.3698      7.7605
C      0.0900      3.9758      5.6951
O      8.5835      5.3566      4.4498
C     -1.5946      8.0806      5.4628
C     -6.6264     14.4851      7.2360
C      5.1046      1.9921      6.4497
C      3.3175      0.4447      5.8733
H      9.5434      5.2006      4.5639
H     -5.6351     14.9975      7.1027
H      5.3718      3.2975      8.4878
H     -4.0578      9.1001      8.1814
H      0.6297      9.3270      6.1102
H     19.0116     11.6408     18.0640
H    -10.4597     11.0316      8.3906
C      1.7752      5.0734      7.0280
H     -0.6495      4.1794      2.1709
C      3.9015      5.2544      5.1351
C     -9.6068     15.7576      9.2581
H     20.6980      9.2797     15.8332
C      8.3185      7.5538     10.8763
H      3.2250      5.0071      8.4035
H     10.8214      6.5516     11.1894
H     -6.4534     13.4456      6.6965
C      3.7355      2.4678      4.5223
C     18.0110      9.6964     18.5613
C     -6.2576     12.4470      8.7442
C     -4.9244      9.3388      7.7051
C      5.2568      4.4483      7.9063
C     -6.9590     13.9475      8.6741
H     -0.5499      4.4702      7.8162
H      0.9301      2.7620     -0.0671
H     19.5729      9.6019     13.1586
H      7.1179      5.4344     11.2370
H     -1.3223      2.2124      6.3178
C     14.1657      9.9907     13.9807
H    -10.9569     17.1095     10.0894
H     -2.8972      9.8908      2.9040
265

C     19.9740      9.0093     14.1168
C      3.9482      1.5048      7.2576
C      2.1222      2.7438      1.5110
C      7.1492      4.9227      2.5428
H     -2.9703      3.5899      3.3044
C      7.4401      3.5169      2.6393
C      3.3785      3.9265      5.4868
C     -6.2011     10.2193     10.5008
C     16.3720      7.1182     19.5371
C      5.9289      1.6724      4.0439
C     -6.9167      9.2995      9.4369
C     13.8031      8.6338     13.7778
N     -0.2435      2.8291      6.3490
C      0.5918      6.2758      0.6947
O     -1.5574      2.5247      1.5831
C      3.0564      3.9788      7.0149
C     15.5951      6.0472     17.5155
C     16.6449     10.3377     16.8197
H    -11.7103     13.5445      9.4212
H     -3.7461      3.3633      5.0608
H     17.4661      5.4592     15.8178
H     -7.1039     10.2132     12.3912
C     17.1677      9.0574     16.4148
H     -8.6167      8.6432     10.8004
H     -5.4635     10.9555     10.0037
H      8.2375      3.0504      3.4196
H     13.1743      7.3083     10.4523
H     -1.0348      5.2751      6.7124
C      2.9816      2.5867      7.7572
H     -3.3291      9.7982     -0.3310
H      7.0217      1.4447      4.4441
O     15.3578     10.1028     14.7158
C     -4.8334     12.7129      8.7852
C      6.5930      6.2217      9.5421
H      2.4041     -0.1881      6.2316
H      2.8779      6.6606      9.7713
C      6.1181      2.5541      2.8871
H      6.0841      4.7117      7.2245
H     -5.5590      9.7417     11.4353
H     -7.4826     10.1689      8.9510
H     -7.7565      7.4537     10.0968
C     17.5475     10.8348     17.7708
C     -2.7341      8.7852      5.0451
O      2.0176      8.5560      5.1366
C     -1.6956      7.9981      7.0652
C      8.6990      8.1333     11.8880
C     20.4156      7.6468     12.9759
C      6.4369      7.0965     -0.7482
H      4.8863      3.9612      1.7828
H     17.6360      9.8306     14.7720
H      2.1236     -0.8675      3.0212
H     -4.4995      5.4987      8.2771
H     15.2872     10.1849     15.8149
C      6.9412      6.6942     10.9070
C      7.8876      5.6832      3.2938
H      8.0515      7.3135      2.0876
C     -0.9845      6.6965      5.0227
H     15.5336      8.7846     20.9295
H      4.3226      0.3024      2.1662
H     -6.6944     11.7759     12.0038
H     15.3713      6.8784     13.7852
C     -2.9330     11.1206      8.0359
C      5.4497      5.4246      9.1839
C     15.9943      7.4540     18.0761
C      4.5039      5.9343      0.4895
C     18.0713      9.1731     15.3988
H     -3.7200      8.3178      5.0430
H      8.8548      7.6937      3.7695
H     -9.1134     14.1609     10.6881
H     -6.5984     12.0628      9.5320
H     18.1780     12.1028     16.1943
C     -0.1557      3.6933      8.7069
C     13.1982      8.6357     12.1884
C      1.7652      1.6490      7.8763
H     -1.5819      6.9659      9.4880
C     -0.6835      6.5508      1.4151
H      5.8555      7.9229     -0.7793
H     -2.2624      2.2653      4.6932
H     -8.3058     11.1593     10.8685
C     10.1567      7.5054     12.7585
O     14.5377     11.2708     13.0795
C     -6.1343      8.7919      8.3359
C     16.4451      8.5314     20.4638
C     -9.3834     14.5871      9.6232
C      2.7625      1.3404      4.9253
H     -1.8611      9.7416     -1.1150
H     -6.5414     12.1211      6.5649
H    -10.0489     17.0176     10.9988
C      3.7785      3.1424      3.3542
H     -4.1865     10.2622      5.9249
C     -2.1220      8.5282      0.5412
C     11.2067      7.0517     11.8465
H     -1.5941      9.3745      6.8116
C      4.9652      2.0980      5.1616
H      4.0498     -0.3374      5.8368
C    -10.1433     12.0706      8.5127
C     -7.8360     11.1806      8.1523
C     -2.2903      5.3666      3.4732
C     16.8691      9.4961     19.5198
C      2.3861      3.5425      2.8634
C     -7.9489      8.5148      9.8965
H     15.5122      8.6985     13.9911
H     -3.0401      4.7177      1.6026
H     13.8420     11.7872     12.5985
H      2.0202      4.5589     -0.7351
O      5.7596      6.4931      6.5455
C      0.6752      8.1505      4.5573
H     -8.5414     10.7697      7.1103
C     -2.5828      8.9319      3.4955
C     -2.0220      7.9070      2.9155
H     -6.7882      8.7582      7.3665
C     -2.7549      7.3426      7.7062
H      2.3026      4.2213      5.2974
H     14.2937      8.9448     10.6260
H      5.7445      1.7369      2.1495
H      0.6769      4.3484      8.9684
C      3.1236      1.9232      1.0666
C     -0.0749      8.5785      2.0957
C     -0.5728      3.0802      1.7430
C     -0.4821      4.0783      4.3853
C     -5.3317     10.9295      7.2028
H     -3.7616      6.9708      7.4875
H     16.0077     10.3047     19.3197
H      0.5845      6.4355     -0.4684
O     -0.0580      9.8201      6.2735
C     -6.5910     11.5876      7.5902
C      0.7688      7.1567      6.8302
C     14.9782      7.8776     14.0274
H     15.5395      8.3438     15.9284
C      0.6225      7.6531      3.0310
H     -3.6533     12.7126      9.1776
C      2.4964      0.5839      3.5819
C      0.2515      2.3321      8.0627
C     -2.1280     10.4879      6.8232
C     -2.6167      3.2753      5.2352
C     18.0594     12.1461     17.4136
C     -9.8264     17.0108      9.8437
C      0.6860      2.6231      1.0346
C     -1.1639      7.9447      1.5628
C     -8.7581     12.2350      8.3244
N      1.5844     -0.3550      3.5000
H      4.3379      1.1514     -0.1954
C      3.1443      1.2478     -0.3662
O     16.8092      5.9031     15.4467
C      9.3726      6.2511      0.7399
H     19.0275      9.0495     18.5998
H     -0.5833      1.7009      7.9778
C     -2.7315      4.3483      2.6326
C     -2.6853      7.3111      9.0737
H      1.6219      1.0360      6.9181
H      7.5315      4.7982      0.8494
H     -4.9884      8.8295      6.8260
C     -2.3398      9.6830     -0.1590
H      4.5443      5.4426      9.8128
H      1.7310      8.0183      8.9787
H     14.9267      9.9234     11.9056
H      2.5439      1.8567     -1.1450
H     -1.1137      3.7839      9.7054
C     14.9495      7.5521     15.4324
C     14.2630      9.1458     11.5946
C     -7.2150     10.9426     11.5315
H     15.6427     10.4317     17.1048
C      4.5687      8.0778      4.6283
C      8.0027      7.0056      3.1985
C     21.0750      9.5692     14.8057
C     19.0244      8.3231     14.9566
C      4.2803      5.9731      6.3985
C      1.6319      4.8380      2.6799
C      5.7831      6.1250      0.3582
C      5.8011      7.3565      4.1756
C      7.9720      6.5956      0.8739
C      3.9630      5.0159      7.7392
C      1.5056      5.1635      1.1792
H     -2.3708      6.2151      6.4345
C      6.6421      6.7425      5.3661
H      9.5399      6.0240     -0.4855
H      0.2520      1.6475      1.2510
C      6.8283      5.4407      1.1694
H     -0.6347      3.2735      3.7754
O      7.8990      6.8866      5.4411
H      8.5770      9.3690     11.7536
H      1.9617      3.0435      3.7409
H     -0.4528      9.4135      2.7143
H      3.1492      4.8293      0.8079
H      4.6213      5.5632      4.4250
C     12.3450      7.5469     11.4109
C     15.5076      6.1353     16.0528
H      1.3560      6.4522      9.1635
C     -1.7739      4.6112      4.7317
C      0.4568      6.9340      5.2787
H     17.1125      8.2170     21.2646
H      1.6984      1.8224      4.9569
C      1.1932      5.7791      4.7839
H      2.7343     -0.0061      1.2270
H     16.5415     11.2030     15.8780
H      0.1199      7.0792      8.7347
C     -4.9533      6.2206      8.8434
C     -8.6295     13.6789      8.4582
C      6.5753      7.5887      3.0281
C     -3.2180     10.2059      5.4936
C     -0.3080      6.3080      2.8137
C     -1.4924      6.5885      3.5640
H      3.6132      6.5526      0.2612
H     -2.2705      3.4858      6.4728
C    -10.7540     13.5655      8.7694
C      0.3295      5.0865      3.6433
C      4.9549      3.5081      2.8977
H      0.9352      4.9841      7.6370
H     -5.7698      7.8944      8.3928
H     -2.2312     11.9823      8.5146
C      2.3576      6.8005      8.8510
C     -1.6199      5.6063      5.9011
C      3.1725      0.7608      2.1688
C      1.0903      4.7850      5.8726
C      2.1507      6.5502      7.2856
C      2.3436      4.0280      0.4267
H     -1.1671      5.7266      0.9753
H      4.1590      2.4354      0.7134
H     -1.4646     11.2091      6.1351
H      5.5152      0.7227      3.9306
C     -0.5703      9.0001      5.1523
C     -4.0216      7.0006      9.6007
H      4.5336      5.0129      1.0767
H     21.6716     10.3740     14.2722
C     -4.3005     11.6234      8.0553
H      9.8700      5.9787      1.5154
H     -3.2734     10.9141      4.7304
H     -7.0144     14.6521      9.4529
C     -0.1520      7.3868      7.8136
C      0.1860      3.6958      5.6255
O      8.5107      5.0863      4.3592
C     -1.6576      8.1029      5.6348
C     -6.6820     14.3841      7.2520
C      5.0318      2.0151      6.4812
C      3.1392      0.4842      6.0101
H      9.4254      5.5120      4.5248
H     -5.8176     15.1221      7.2899
H      5.3778      3.5313      8.3373
H     -4.1324      9.4629      7.8164
H      0.8812      9.6837      6.5795
H     19.0482     12.3324     18.1494
H    -10.6867     11.1414      8.6247
C      1.8679      5.0061      7.2443
H     -0.7399      4.2650      2.0402
C      3.9540      5.3493      5.1728
C     -9.4581     15.8403      9.1898
H     21.0236      9.3228     15.8185
C      8.2229      7.3804     10.8790
H      3.3379      5.2645      8.5250
H     10.7268      6.3973     10.9058
H     -6.6475     13.4136      6.6735
C      3.6730      2.4601      4.6271
C     18.1106      9.6586     18.6608
C     -6.2655     12.5593      8.7473
C     -5.1244      9.5029      7.6535
C      5.2711      4.6010      7.9458
C     -6.8949     13.9647      8.5875
H     -0.5316      4.4730      7.9962
H      0.2532      3.4877      0.1801
H     19.1212      9.6056     13.4854
H      7.2902      5.5292     10.9664
H     -1.4852      2.3635      6.4344
C     14.1313      9.9373     13.8743
H    -10.4275     17.4920      9.1972
H     -3.1981      9.7884      2.9501
265

C     20.1353      8.8058     14.0740
C      3.8445      1.5453      7.2272
C      2.0496      3.0518      1.4206
C      7.1711      4.8525      2.4595
H     -2.9837      3.3852      2.7811
C      7.3613      3.3803      2.6222
C      3.3583      4.1211      5.4855
C     -6.1812     10.2060     10.5061
C     16.3118      7.0342     19.5291
C      5.8424      1.6293      4.1040
C     -6.9156      9.3460      9.4618
C     13.7454      8.7169     13.7292
N     -0.2520      2.7642      6.4956
C      0.4669      6.0377      0.7228
O     -1.6490      2.5320      1.5623
C      3.0330      4.0062      7.0612
C     15.5625      6.2013     17.6364
C     16.7411     10.3471     16.6514
H    -11.5193     12.9377      9.3512
H     -3.5292      3.5050      5.3937
H     17.7158      5.3946     15.8393
H     -7.4875     10.1315     12.2134
C     17.3478      8.9859     16.4585
H     -8.4230      9.1310     10.6779
H     -6.1546     11.1077      9.9292
H      8.2524      3.1588      3.3667
H     13.1578      7.4643     10.7441
H     -0.8073      5.1884      6.3872
C      2.8183      2.7208      7.7142
H     -3.4862      9.7958     -0.1844
H      6.8468      1.6067      4.6583
O     15.3810     10.0561     14.6517
C     -4.7198     12.6765      8.8051
C      6.5492      6.1827      9.5788
H      2.0511      0.0076      6.2272
H      3.1407      6.4050      9.8106
C      6.0781      2.6023      2.8153
H      6.1111      4.5924      7.0039
H     -6.0744      9.2292     11.1679
H     -7.8666     10.1684      8.9120
H     -7.7697      7.2813      9.5572
C     17.8106     10.9820     17.6593
C     -2.9015      8.8193      4.9513
O      2.0131      8.6251      5.1674
C     -1.5641      7.9766      7.1394
C      8.7280      8.3524     11.8034
C     20.5240      7.7500     12.8814
C      6.3700      7.0980     -0.6668
H      4.8363      4.2003      1.7404
H     18.1484      9.8278     14.4367
H      1.6364     -0.6230      2.4940
H     -4.9526      5.6606      8.2227
H     15.1365      9.7561     15.6022
C      6.9743      6.5867     10.9326
C      7.9740      5.6598      3.2610
H      8.0183      7.1230      1.9309
C     -1.1213      6.9184      5.2296
H     15.5418      8.3650     20.9752
H      4.2606      0.6917      1.6175
H     -6.7762     11.7383     12.1153
H     15.0574      6.8388     13.2670
C     -2.8665     11.3324      7.8495
C      5.5397      5.4915      9.3888
C     15.9678      7.5804     18.0050
C      4.4609      6.2069      0.4877
C     18.1002      9.2724     15.3822
H     -3.9251      8.2632      5.1393
H      8.9018      7.7426      3.4611
H     -8.7225     14.7087     10.4884
H     -6.8171     12.3389      9.8926
H     17.8596     12.0471     16.3620
C     -0.1693      3.6558      8.7387
C     13.0404      8.4871     12.1645
C      1.7149      1.7250      7.8314
H     -1.7696      6.9132      9.2032
C     -0.6573      6.4543      1.3374
H      5.8107      8.0297     -0.8767
H     -2.2794      2.3065      4.4537
H     -8.0229     11.4507     11.0680
C     10.1505      7.5351     12.6691
O     14.6188     11.3179     12.9862
C     -6.2172      8.7405      8.3699
C     16.4862      8.4800     20.2808
C     -9.5165     14.2731      9.6389
C      2.8331      1.2990      4.8791
H     -1.8842      9.6502     -0.9980
H     -6.8374     12.2148      6.6577
H     -9.6562     17.0029     10.8546
C      3.7051      3.1810      3.3825
H     -4.1474     10.1445      5.8464
C     -2.1857      8.5833      0.6371
C     11.1972      6.9242     11.8415
H     -1.7732      9.4273      7.0588
C      4.9686      2.1858      5.0813
H      4.0797     -0.3156      6.0443
C    -10.1423     12.1978      8.4718
C     -7.9212     11.0340      8.1170
C     -2.2914      5.4475      3.5891
C     16.8150      9.6409     19.4858
C      2.3425      3.3636      2.8992
C     -7.9492      8.3687      9.7487
H     16.1651      8.1608     13.6815
H     -3.2726      4.3731      1.7555
H     13.9123     11.9027     12.6671
H      1.9138      3.8447     -0.5871
O      5.8204      6.3459      6.5612
C      0.7303      8.2068      4.5202
H     -8.2196     10.2466      7.4146
C     -2.5638      8.9339      3.5081
C     -1.9509      7.8596      2.8304
H     -6.7387      8.5720      7.3415
C     -2.7285      7.6358      7.6640
H      2.3058      3.8177      5.2412
H     14.3821      9.1832     10.4579
H      6.0275      1.6496      2.1780
H      0.7420      4.1863      8.8467
C      3.1545      1.8344      1.1633
C     -0.0665      8.6849      1.9906
C     -0.5179      3.1366      1.7573
C     -0.5434      4.0702      4.3527
C     -5.3444     10.7300      7.2700
H     -3.6875      7.6045      7.1254
H     16.3801     10.5425     19.0331
H      0.4998      6.4412     -0.5131
O      0.0738      9.7368      6.2109
C     -6.6949     11.6186      7.6297
C      0.6087      7.1382      6.8284
C     15.0052      7.7948     13.8501
H     15.4183      8.5570     15.8706
C      0.5387      7.6670      3.0220
H     -4.2920     13.5402      9.6257
C      2.4115      0.4641      3.6591
C      0.1810      2.2690      7.9684
C     -2.0985     10.4543      6.9425
C     -2.4991      3.3736      5.0855
C     18.1897     12.1962     17.3858
C     -9.7392     17.0170      9.8272
C      0.5902      2.5735      1.0649
C     -1.3533      7.9861      1.5733
C     -8.8411     12.2293      8.4322
N      1.5120     -0.2750      3.4291
H      4.3197      1.2662     -0.5228
C      3.0365      1.1213     -0.0804
O     16.7935      5.9448     15.4512
C      9.3232      6.2633      0.8736
H     19.0370      9.5115     19.0360
H     -0.3613      1.3667      8.0914
C     -2.6696      4.4967      2.7295
C     -2.7810      7.3692      9.0764
H      1.3745      1.1200      6.7933
H      7.3357      4.7144      0.2377
H     -5.2435      8.8063      6.6105
C     -2.4617      9.8360     -0.1310
H      4.5625      5.6263      9.8559
H      2.3230      7.7530      9.1985
H     -0.8716      9.8224      4.4566
H     14.2461      9.4742     12.5700
H      2.6009      1.5835     -1.0266
H     -0.9771      3.7112      9.4030
C     14.8595      7.6001     15.5853
C     14.1837      9.0421     11.5681
C     -7.1933     10.8314     11.4960
H     15.5769     10.1253     17.0486
C      4.3871      8.2091      4.5326
C      7.9785      7.1283      3.2221
C     21.0976      9.6084     14.9377
C     18.9989      8.2622     14.9108
C      4.4118      5.9627      6.5688
C      1.6633      4.9376      2.7096
C      5.8488      6.0590      0.1397
C      5.7977      7.2883      4.1897
C      8.0277      6.7072      0.9183
C      4.1033      4.8739      7.5822
C      1.3931      5.1458      1.1307
H     -2.5060      5.7722      6.4561
C      6.4838      6.8094      5.4400
H      9.5206      5.8427     -0.1074
H      0.6284      1.5235      1.3218
C      6.8626      5.4551      1.0692
H     -0.2869      3.3354      3.5809
O      7.8688      6.7663      5.5213
H      8.3869      9.2801     11.6894
H      1.6509      2.6046      3.5149
H     -0.0330      9.6895      2.4343
H      3.3858      4.5547      0.0255
H      4.9729      5.4723      4.6344
C     12.3841      7.5948     11.3989
C     15.6676      6.1918     16.1285
H      1.3929      6.1552      9.1566
C     -1.8217      4.6709      4.8054
C      0.3585      6.9351      5.4648
H      1.7068      1.7688      5.1371
C      1.0788      5.7146      4.8100
H      2.7042     -0.0151      1.7791
H     16.3206     11.0970     15.6751
H      0.0748      7.5615      8.6906
C     -4.9581      6.2377      9.0071
C     -8.3921     13.6447      8.5578
C      6.6185      7.6482      3.1358
C     -3.0744     10.1549      5.4957
C     -0.2293      6.3185      2.7933
C     -1.4470      6.6200      3.5597
H      3.8125      7.0347     -0.2990
H     -1.9690      3.3115      6.0562
C    -10.6154     13.5018      8.8843
C      0.1907      5.1616      3.5555
C      4.9481      3.4552      2.8383
H      1.1997      4.7962      8.0786
H     -6.0039      7.8295      9.0146
H     -2.1802     11.4856      8.5990
C      2.3829      6.8043      9.0075
C     -1.5138      5.5820      5.7878
C      3.2547      0.8236      2.0986
C      1.0560      4.5793      5.8329
C      1.9952      6.5393      7.3567
C      2.4110      4.1278      0.4224
H     -1.3067      5.6682      0.8974
H      4.0168      2.6904      1.0430
H      2.8003      0.0280      0.1190
H     -1.5530     11.3908      6.5933
H      5.1577      0.8231      3.6999
C     -0.5258      9.1180      5.2191
C     -4.0865      7.1733      9.5935
H      3.9083      5.2614      0.7669
H     21.7093     10.2366     14.2751
C     -4.1470     11.5863      7.7625
H     10.3087      6.1254      1.3913
H     -3.2651     11.2124      4.7454
H     -7.0000     14.6178      9.6438
C     -0.3044      7.3927      7.6426
C      0.1617      3.6793      5.5629
O      8.5210      5.0537      4.2808
C     -1.6738      8.1550      5.5472
C     -6.7434     14.1800      7.2176
C      5.0978      2.0108      6.6539
C      3.1614      0.4673      6.1346
H      9.4185      5.4735      4.2752
H     -5.7032     14.5915      7.5219
H      5.2589      3.3807      8.4398
H     -4.1605      9.4155      8.2780
H      0.8780      9.3579      6.6211
H     18.8123     12.4363     17.9759
H    -10.4006     11.2404      8.5601
C      1.8850      4.9422      7.1830
H     -0.4443      3.9663      2.3012
C      4.0428      5.3234      5.2413
C     -9.5991     15.8588      9.0228
H     21.1048      9.3402     15.9182
C      8.3509      7.3277     10.8019
H      4.1642      5.8138      8.3410
H     -6.0694     13.6779      6.5165
C      3.6668      2.5817      4.5956
C     18.0226      9.7157     18.6971
C     -6.2629     12.6185      8.8394
C     -5.1415      9.4712      7.6357
C      5.4640      4.4588      7.9552
C     -7.0971     13.8550      8.7273
H     -0.7333      3.9551      7.8536
H      0.9531      2.4455     -0.2002
H     19.6050      9.4557     13.4290
H      7.4105      5.5640     11.2276
H     -1.0052      1.9038      6.3353
C     14.3061     10.2620     13.8626
H    -10.1301     17.7259      9.2638
H     -3.4903      9.5799      2.9286
