269

C     20.0792     -3.8897     14.0683
C      4.0858      1.4921      7.1357
C      2.3568      2.9627      1.3955
C      7.0088      4.9500      2.4392
H     -3.8033      3.9329      2.4275
C      7.3053      3.6032      2.8429
C      3.3424      3.9062      5.4464
C      6.6844     -3.2819     10.2611
C     15.8177     -5.9203     19.4985
C      6.2599      1.5540      3.9378
C      5.8354     -4.0584      9.4944
C     13.8166     -4.2077     13.8882
N     -0.5590      2.8230      6.4766
C      0.6065      6.0115      0.5016
O     -1.4515      2.7356      1.9392
C      3.0403      3.9711      6.8451
C     15.6454     -6.8924     17.3819
C     16.5023     -2.4333     16.6239
H      1.0805      0.8302      9.4746
H     -3.8517      3.5830      4.6138
H     17.8194     -6.2289     15.2956
H      5.9319     -2.8827     12.3196
C     17.2634     -3.8043     16.3491
H      4.5153     -5.7612     10.5311
H      7.1912     -2.6054      9.5737
H      7.7978      3.6691      3.6313
H     12.8831     -6.1050     10.9493
H     -0.8210      5.0561      6.3447
C      2.9147      2.7469      7.6850
H     -2.6866      9.4517     -0.9508
H      7.2777      1.2105      4.3774
O     15.4389     -2.4905     14.5097
C     -4.6746     12.5446      8.7768
C     -6.0504      6.1746      9.5517
H      2.6303      0.0940      6.3697
H      3.0633      6.1301      9.0238
C      6.2964      2.6067      2.7241
H     -6.6853      4.6612      7.2143
H      7.7782     -3.9631     10.2005
H      5.4307     -5.6938      9.2881
C     17.3676     -2.2055     17.7101
C     -2.8078      8.7749      4.8489
O      1.7660      8.6757      4.7858
C     -1.5870      8.0779      7.0821
C      8.6200     -4.7085     12.0447
C     20.2320     -4.9903     12.9895
C     -6.9667      7.2965     12.0447
H      5.3843      3.7696      1.5973
H     18.1851     -2.7082     14.4829
H      2.2993     -0.5917      3.2893
H     -4.7714      6.1451      7.6801
H     15.6534     -1.4717     14.5468
C     -5.9769      6.6856     10.9547
C      7.7194      5.7386      3.2682
H     21.9437     -4.4501     14.5824
C     -1.2149      6.6885      5.1519
H     15.0204     -4.3282     20.4711
H      4.2362      0.7809      2.6572
H      6.0287     -1.2178     10.8771
H     15.1317     -5.8666     13.4661
C     -2.9664     11.5401      7.4209
C     -7.0216      5.0636      9.3566
C     15.9931     -5.4567     18.0517
C     -8.4919      6.2391     13.7160
C     17.9549     -3.6505     15.0879
H     -3.6459      8.2059      5.2635
H      8.2715      7.1842      4.2566
H      3.4135      1.7033     10.6397
H     -6.5646     12.3685      9.7191
H     18.1305     -0.1369     17.0944
C      0.1592      3.7946      8.5900
C     13.2067     -4.5960     12.5620
C      1.7075      1.9486      7.5957
H     -2.4963      6.1926      8.9746
C     -0.5599      6.2233      1.2777
H     -7.8669      7.9878     12.3790
H     -2.5048      2.3111      4.2560
H      4.7341     -2.5742     11.1136
C      9.8568     -5.2689     12.8615
O     14.2033     -2.2305     12.8222
C      6.4087     -4.3411      8.0417
C     15.9967     -4.5311     20.1151
C      3.4042      1.5021      9.5773
C      2.6890      1.7274      4.9724
H     -1.0722      9.9965     -0.2213
H      5.6832     -0.8750      7.0432
H      3.7005      3.5168     10.8966
C      3.9271      3.5476      3.3167
H     -4.1155     10.7313      5.3267
C     -2.1226      8.5398      0.4616
C     10.8361     -5.5215     11.6609
H     -1.9229      9.6359      7.1062
C      5.2888      2.1267      4.9711
H      3.9661      0.3991      5.3183
H     -4.3810     13.6639      8.4915
C      2.6062     -0.3724      8.3052
C      4.8359     -1.8985      8.1148
C     -2.0909      5.2922      3.4586
C     16.4306     -3.5610     19.4106
C      2.5900      3.5708      2.7252
C      4.7835     -4.9675      9.6135
H     16.0004     -4.3823     14.1808
H     -3.2385      5.4471      1.7906
H      2.1514      3.2814     -0.3524
O      5.6893      6.6242      6.4876
C      0.5596      8.2397      4.5799
H      4.2847     -2.3111      7.0794
C     -2.6337      8.7678      3.4787
C     -2.1398      7.5623      2.7926
H      5.5776     -4.1731      7.2369
C     -2.6812      7.5363      7.5986
H      2.3091      3.9086      5.0367
H     14.2851     -4.7454     10.5605
H      6.4907      1.8055      1.8911
H      1.1705      3.9696      9.0519
C      3.1722      1.6009      1.1357
C     -0.1172      8.5727      2.0903
C     -0.3406      3.1741      1.8752
C     -0.2932      3.9189      4.1812
C      7.4307     -2.2670      7.1575
H     -3.6822      7.2915      7.8431
H     15.6956     -2.6994     19.4563
H      0.8930      6.0013     -0.4317
O      0.0263      9.4641      6.3390
C      6.1832     -1.4087      7.6816
C      0.6179      6.9323      6.9730
C     15.0620     -4.9445     14.1766
H     15.6121     -4.7570     16.1089
C      0.5868      7.6067      3.1035
H     -4.3384     12.2153      9.8832
C      2.4764      0.8180      3.6964
C      0.2411      2.5559      7.6897
C     -2.1775     10.5835      6.5461
C     -2.8721      3.2137      4.9824
C     18.0304     -1.0596     17.7013
C      3.1610      3.8094      9.8896
C      1.0544      2.4004      1.5567
C     -1.1367      7.9162      1.5646
C      3.9590     -0.5973      8.3845
N      1.7099     -0.2378      3.9883
H      3.9410      0.5888     -0.4119
C      2.9810      1.0513     -0.2006
O     17.1727     -6.7997     15.9855
C     -3.5183      6.4887     13.5522
H     18.6287     -3.8254     18.5023
H     -0.3692      1.4035      7.8290
C     -3.0304      4.7505      2.5487
C     -2.5765      7.2368      8.9882
H      1.6086      1.1928      6.8330
H     -5.6094      4.7750     13.1293
H      8.1223     -4.1570      6.9412
C     -2.1929      9.7298     -0.1184
H     -7.7517      5.4755     10.2534
H      2.2856      7.6628      8.9495
H      8.1203      5.4448      6.3085
H     -1.0303      9.7657      4.4779
H     15.1048     -4.1753     12.1251
H      3.4076      1.7824     -0.8207
H     -0.6552      3.6131      9.2838
C     14.9930     -5.4081     15.6370
H     -6.6661      4.4644     10.2839
C     14.0293     -4.3304     11.6439
C      5.9162     -2.5057     11.2482
H     15.4482     -2.6664     17.0691
C      4.3759      8.2633      4.6107
C      7.9594      7.1315      3.3190
C     21.3322     -3.5001     14.6284
C     19.0519     -4.4625     14.9885
C      4.5357      5.8752      6.2788
C      1.8158      4.9053      2.5120
C     -7.3108      6.0513     12.9726
C      5.8279      7.6015      4.5201
C     -4.9685      6.6376     13.6946
C      4.2665      5.0377      7.5615
C      1.3983      5.0162      1.1043
H     -2.2115      5.6771      6.9474
C      6.5928      6.9537      5.5137
H     -3.4382      5.4188     13.4035
H      1.1090      1.5143      2.2382
C     -5.9863      5.5942     13.7949
H     -0.4987      3.1854      3.3652
O      7.7969      6.5234      5.9539
H      8.6738     -3.4676     11.9115
H      2.1827      3.1781      3.7004
H     -0.2455      9.5014      2.5178
H      3.3212      4.2423      0.2606
H      4.5454      4.9367      4.3445
C     12.1299     -5.4424     11.5275
C     15.6910     -6.8180     16.0265
H      0.9945      6.3371      9.0887
C     -1.9325      4.5055      4.7052
C      0.3965      6.8738      5.3804
H      3.8446     -4.7887      8.7782
H      1.7120      2.1669      5.4342
C      1.2050      5.6665      4.8291
H      2.6093     -0.2988      1.9990
H     16.9593     -1.8190     15.9559
H     -0.3443      6.6528      8.5536
C     -4.9457      6.3563      8.7860
C      4.4969      0.8200      8.3353
C      6.5323      7.8044      3.1809
C     -3.0858     10.3905      5.3210
C     -0.0846      6.2056      2.8145
C     -1.4580      6.5694      3.5765
H     -9.1360      7.0998     13.7178
H     -2.7064      2.8684      6.0059
C      2.0269      0.9796      8.8527
C      0.6305      4.9726      3.4530
C      5.0615      3.3760      2.5491
H      1.2774      4.2533      7.5709
H      6.8328     -5.3639      7.7950
H     -2.2772     11.9769      8.2520
H      7.3525     -2.0908      6.2292
C      2.0141      6.5839      8.7515
C     -1.8035      5.5875      5.8535
C      3.2447      0.7268      2.4424
C      1.1634      4.5541      5.7768
C      1.9602      6.2536      7.3247
C      2.2409      4.0068      0.3900
H     -1.3716      5.6871      1.1665
H      4.4948      1.9196      0.9918
H      2.0329      0.6557     -0.3818
H     -1.1933     11.0360      6.7841
H      5.6677      0.9626      3.2227
C     -0.4894      8.9809      5.0665
C     -3.9820      7.2215      9.5729
H     -8.7577      5.0004     14.1572
H     21.8159     -2.8071     13.9931
C     -4.3559     11.5045      7.7677
H     -2.7406     10.8843      4.3308
H      6.2170      1.3222      9.4015
C     -0.3196      7.5461      7.7911
C      0.2534      3.5666      5.5180
O      8.5156      4.9983      4.2446
C     -1.6575      8.1555      5.6109
C      6.5197      1.3473      7.2354
C      5.3060      1.8971      6.4004
C      3.1553      0.9731      6.1101
H      9.1717      5.5892      4.8179
H      7.6726      1.8876      7.5747
H     -7.6086      3.3020      8.4453
H      8.1718     -3.7091      8.6247
H      0.5055     10.4649      5.8946
H     19.1659     -0.7585     17.7714
H      1.9054     -1.3923      8.2377
C      1.8485      4.9417      6.9162
H     -0.4074      4.3109      1.5891
C      4.0982      5.2138      5.1068
C      3.2563      2.7971      9.0172
H     20.9680     -3.0554     15.4579
C      8.2255     -5.2013     10.6608
H      3.7260      5.6133      8.1447
H     10.3567     -6.4519     11.2211
H      7.0223      0.3452      6.7396
C      3.8710      2.6317      4.6814
C     17.6822     -3.4298     18.5346
C     -6.2570     12.5190      8.7306
C      7.5506     -3.6558      7.7006
C     -7.3510      4.4497      8.1176
C      5.9562      0.9425      8.4666
H     -0.2874      4.6272      8.3164
H     -1.6561      7.4339      9.6299
H      0.8199      1.6811      0.7911
H     19.7469     -3.2242     13.4430
H     -5.7737      5.6989     11.3697
H     -0.3860      1.7488      6.1124
C     14.3180     -2.8579     13.7584
H      3.3552      4.7215      9.4696
H     -2.5627      9.8236      3.0380
