272

C     20.0113      8.7884     13.8292
N     -1.7789     10.5491      1.8398
C      4.0761      1.5598      7.1076
C      1.8537      2.7620      1.4008
C      6.6822      5.0642      2.5258
H     -3.9217      4.3683      3.2723
C      6.9972      3.6591      2.7551
C      3.2961      4.0368      5.5395
C     16.1897      7.2111     19.5146
C      6.0074      1.5783      3.7961
C     -7.3471      8.7232      9.3423
C     14.1059      8.5923     13.7278
N     -0.2991      2.7570      6.2779
C      0.3201      5.7544      0.6308
O     -1.6441      2.1919      1.5987
C      3.1851      4.0673      6.9541
C     15.6572      6.2888     17.4131
C     16.7789     10.5593     16.6641
H    -11.6867     14.3771      9.2935
H     -3.8691      3.7882      5.0096
H     17.3481      6.8606     14.7364
C     17.1534      9.1009     16.0853
H     -8.8773      7.8483     10.7218
H     -7.4155      9.7306      9.8574
H      7.8173      3.2668      3.1563
H     13.1029      7.8168     10.7314
H     -0.2875      5.0562      6.7507
H      8.6415      3.2732      9.8914
C      3.0377      2.6953      7.5094
O     14.6393     10.5951     15.3316
C     -4.8710     12.6973      8.6910
H      5.2130      3.3593     11.2829
C      7.0190      6.0801      9.7658
H      2.1995      0.7528      6.4267
H      1.5093      7.9544      9.1053
C      6.0468      2.6352      2.7335
H      6.3885      5.3175      7.1821
H     -7.5743     11.4640      9.8875
H     -8.0155      6.8416      9.4507
C     17.8241     11.0648     17.5368
C     -2.8296      8.0585      5.0419
O      2.2245      8.8923      4.9669
C     -1.4137      7.7404      7.0838
C      8.9151      8.2587     11.9333
C     20.5847      7.8965     12.8875
C      6.5078      7.1403     -0.7945
H      4.5279      3.8714      1.4096
H     17.8899      9.8904     14.1576
H      2.7785     -1.0334      3.1293
H     -4.5729      6.5230      8.1614
H     14.1160     11.2182     15.9638
C      7.6852      3.1356      9.4016
C      7.2185      6.5360     11.0235
C      7.3029      5.8966      3.5126
H      8.1412      7.4691      2.1789
C     -0.8916      6.5699      5.2438
H     16.5170      8.6625     21.3897
H      2.6595      0.0980      1.4378
H     14.9958      6.8200     13.3841
C     -3.5433     11.6285      7.1270
C      6.1055      4.8452      9.3206
O      5.4912      2.7714     10.6173
C     15.9750      7.6990     18.0216
C      4.7479      5.9420     -0.0227
C     17.6689      8.9829     14.7016
H     -3.4278      7.1440      5.1277
H      8.6210      7.7576      4.0156
H     -9.6928     14.0474     10.5360
H     -6.4217     12.1420      9.9996
H     18.4613     12.4103     16.3531
C     -0.4805      3.7249      8.5609
C     13.6066      8.3686     12.3417
C      1.6997      2.0748      7.7234
H     -1.6382      7.4738      9.6274
C     -0.6439      6.2443      1.3915
H      5.8266      8.0197     -1.0815
H     -2.4197      2.9954      4.2062
C     10.2405      7.6421     12.6286
O     14.8959     10.6606     12.9837
C     -6.2529      8.3202      8.2264
C     16.8015      8.4005     20.2755
C     -9.6003     14.3228      9.4454
C      2.9995      1.5578      4.8208
H     -1.8011     11.7235      1.8047
H     -2.7658     10.2613     -0.0482
H     -7.1834     11.9903      6.9666
H    -10.0715     17.0666     11.3102
C      3.8050      3.4325      3.3615
H     -4.6613      9.2894      6.1736
C     -2.0472      8.5518      0.6738
C     11.3276      7.1167     11.7296
H     -2.5463     10.1165      7.5637
C      5.1671      2.1525      4.9974
H      3.2710     -0.3027      6.0234
H     -4.3442     13.6435      8.0794
C    -10.5561     12.6124      8.3556
C     -8.2549     11.2072      8.8616
C     -2.0779      5.1530      3.8883
C     16.7679      9.8274     19.5936
C      2.3662      3.5812      2.7727
C     -8.1270      7.7493      9.9377
H     15.9543      8.5678     13.6642
H     -2.5875      4.0071      2.3227
H      3.2550      5.2810     -0.2826
O      5.6865      6.7159      6.5306
C      0.8555      8.1595      4.5220
H     -8.7470     10.2196      8.3546
C     -2.7719      8.1942      3.5709
C     -1.9007      7.4244      2.9040
H     -6.8131      8.6379      7.4523
C     -2.6189      7.6182      7.6194
H      2.5204      3.8471      5.0021
H     13.5973      8.8697     10.2557
H      6.1693      2.1634      1.8120
H     -0.5012      3.5843      9.6449
C      3.2332      2.1822      0.9428
C      0.1274      8.4923      1.9669
O      7.0599      4.2903     11.2904
C     -0.7166      3.0410      1.5988
C      0.1520      3.9781      3.9320
C     -5.7197     10.7152      7.5929
H     -3.5593      7.6508      7.0132
H     16.2234     10.7763     20.0701
H     -0.1984      5.2477     -0.1173
O     -0.2349     10.0340      6.1191
C     -6.9063     11.5818      8.0379
C      0.8379      7.2170      6.8626
C     15.1086      7.7330     13.8770
H     15.8232      8.2814     15.6478
C      0.8435      7.6031      3.1267
H     -4.1526     12.5657      9.6103
C      2.8679      0.6933      3.8318
C      0.2556      2.5801      7.7308
C     -2.8547     10.3706      6.3906
C     -2.9161      3.4288      5.1980
C     18.7441     12.0709     17.3767
C     -9.9770     16.8187     10.0058
C      0.5515      2.6936      1.0082
C     -1.2132      7.7892      1.5530
C     -9.1323     12.4113      8.3724
N      2.4281     -0.5831      3.8976
C      3.2635      1.5798     -0.4460
O     17.2419      6.2637     15.4739
C      9.5659      6.2968      0.2252
H     18.3155      9.4364     18.3784
H     -0.5983      1.8981      7.9430
C     -3.1229      4.7844      2.9259
C     -2.6035      7.4959      9.0909
H      7.6528      3.8711      8.4107
H      1.6144      1.6890      6.6743
H      7.0851      4.8094      0.3437
H     -4.1822      9.2110      8.4830
C     -2.2141      9.8621      0.7089
H      5.2613      5.3145     10.0214
H     -0.8731      9.7300      4.2532
H     14.2356     10.0029     11.5502
H      2.2744      2.2632     -0.9255
H     -1.3966      3.7755      8.1529
C     15.1177      7.6114     15.3933
H      3.8040      2.1335     -1.1974
H     -1.5646      9.9227      2.7045
C     13.7331      9.2403     11.3331
H     15.8583     10.2215     17.0387
C      4.4216      8.1296      4.3117
C      7.7116      7.2943      3.3022
C     21.1069      9.3635     14.7604
C     18.7976      8.1062     14.6383
C      4.3756      6.0845      6.4658
C      2.0829      5.1060      2.4858
C      5.9107      6.3418      0.2914
C      5.4548      7.2490      4.1062
C      8.3096      6.6462      0.7404
C      4.3637      5.0114      7.5033
C      1.6864      5.3801      1.0114
H     -2.1519      5.7529      6.8606
C      6.2285      7.0068      5.3062
H      9.9090      5.4449      0.7274
H      0.3343      1.9142      0.3155
C      6.9350      5.6541      1.0982
H     -0.1952      3.0825      3.6440
O      7.4445      7.3478      5.4985
H      8.9681      9.3793     11.5447
H     21.4161     10.3622     14.5387
H      1.3715      3.1496      3.3742
H      0.1184      9.5483      2.3368
H      3.1720      3.8369      0.1653
H      4.7903      5.4758      4.5809
C     12.7014      7.3470     11.7173
C     15.8510      6.1527     15.9712
H      2.9504      7.1887      9.1745
C     -2.2497      4.7383      5.1569
C      0.5577      7.0080      5.4042
H     17.5300      8.0260     21.0412
H      1.8856      1.9610      4.7210
C      1.2583      5.8541      4.8997
H    -11.1760     11.7047      8.0107
H      1.6398      0.9045      2.2621
H     16.6266     11.0081     15.7516
H      0.0802      7.7041      8.8056
C     -4.6188      5.9016      9.1106
C     -8.4934     13.8207      8.4442
C      6.2826      7.6612      3.0394
C     -3.5787      9.3046      5.6239
C     -0.0757      6.3577      3.0115
C     -1.3968      6.3212      3.7756
H      3.9415      6.6260     -0.3775
H     -3.0080      3.1973      6.1121
C    -10.9885     13.9274      8.6642
C      0.7153      5.3103      3.5758
C      4.7299      3.3383      2.4284
H      1.5678      4.4090      8.2343
H     -6.0251      7.4021      8.9608
C      6.4586      3.5558     10.0796
H     -2.8306     12.4115      7.4791
H     -5.9674     10.2384      6.6108
C      1.9346      6.9124      8.7773
C     -1.3172      5.4459      6.1923
C      2.6490      0.8687      2.2809
C      0.8516      4.8671      6.0619
C      2.1211      6.4814      7.2447
C      2.5067      4.5377      0.0639
H     -1.7006      5.7060      1.0914
H      4.1529      2.5741      1.5173
H      3.1857      0.4406     -0.3013
H     -4.0693      5.1779      9.3354
H      8.0262      2.4145      8.6169
H     -1.7211     10.7918      6.3240
H      5.6793      0.8180      3.1796
C     -0.4675      9.1514      4.9334
C     -3.8589      7.0963      9.7009
H      4.3237      5.0807      0.9459
H     20.7370      9.2692     15.7199
C     -4.6551     11.7535      7.5811
H     -3.4475      5.4393      2.2787
H     -3.3054      9.7642      4.6455
H     -6.9395     14.7528      9.1466
C     -0.2000      7.4256      7.7159
C      0.1921      3.7837      5.3918
O      7.9919      5.1220      4.5003
C     -1.5112      8.0023      5.4890
C     -6.6371     14.2826      6.9675
C      5.2263      2.1067      6.3408
C      3.1893      0.7199      5.9764
H      8.5460      5.9374      4.9482
H     -5.9816     15.0363      7.1839
H      6.3377      3.7028      7.4952
H     -5.2026      9.7910      9.5051
H     -0.3013      9.3493      6.7559
H     18.6969     12.8470     18.0970
C      1.8644      4.9447      7.2113
H     -1.0045      3.9277      2.2327
C      3.8650      5.4604      5.0376
C     -9.6539     15.8063      9.0807
H     22.0758      8.6457     14.5050
C      8.5658      7.2748     10.9138
H      3.8436      5.2100      8.5435
H     10.7748      6.4508     11.1875
H     -6.0387     13.6879      6.4094
C      3.9286      2.6931      4.7213
C     17.6732     10.1420     18.8661
C     -6.3112     12.7244      8.8546
C     -5.2544      9.3541      8.4670
C      5.7681      4.6221      7.7573
C     -7.0849     13.9591      8.3062
H     -0.2490      4.7758      8.6031
H      1.6372      4.2207     -0.6047
H     19.3800      9.7321     13.4930
H      7.9770      4.7521     10.7737
H     -1.1279      2.1319      6.3083
C     14.5501     10.0558     13.9368
H    -10.1081     17.7346      9.4766
H     -2.7343      8.9887      2.8188
