268

C      6.8889      8.6529      0.6692
N     -2.3372     10.5801      1.4668
C      3.8055      1.4912      7.2468
C      2.4025      2.3778      1.9820
C      7.7099      4.8737      2.3859
H     -3.2148      7.2073      2.8407
C      7.8475      3.6646      2.9074
C      3.2735      4.0481      5.0895
C      3.3394      7.1728      6.4242
C      6.0293      1.5789      3.8577
C     -7.4379      8.1891     10.0316
C      0.6506      9.0943      0.8915
N      0.0484      2.6715      6.0201
C      0.1631      5.9201      0.3638
O     -1.1406      2.2293      1.7208
C      3.1708      4.0710      6.7209
H     -0.0741      5.9630     -0.6686
C      2.8124      6.2416      4.2316
C      3.6507     10.2941      3.4742
H      1.5425      1.7800     10.2251
H     -2.5471      3.0319      4.2132
H      4.6237      6.8749      2.1169
C      4.0804      8.9095      3.0657
H     -8.2753      6.1750     10.7051
H     -7.1553      8.8087     11.0497
H     -1.6467      5.5670      6.9323
H     -4.2129      2.6299      7.8247
C      2.9528      2.7533      7.5480
H      6.7270      0.7482      4.0416
O      1.1221     10.5110      2.6478
C     -5.1201     12.9692      8.2213
C     -6.6906      5.9413      9.7122
H      2.5747     -0.3156      6.6518
H     -8.8070      5.7806      8.0649
C      6.5530      2.9899      3.1752
H     -6.6501      3.5617      7.5123
H     -8.6923     10.3959      9.3981
H      2.7180      7.0249      9.4831
C      4.6529     10.8912      4.5678
C     -2.9365      8.5573      4.8706
O      1.9294      8.5636      4.9460
C     -1.3709      8.4183      7.1151
C     -4.5516      7.9142     11.8261
C      7.6045      7.4719     -0.0824
C     -6.4149      6.6895     12.2515
H      5.7668      4.8159      2.5731
H      4.2318      9.3477      0.8882
H      2.1232     -0.8825      5.6643
H     -3.5791      5.7228      7.7346
H      2.2470     10.9681     -0.3120
C     -4.8688      3.0294      8.8153
H      0.4243      1.0218      1.8791
C     -5.7343      6.3073     10.7917
C      8.2647      5.8463      3.2251
H      8.2607      8.1725      2.1880
C     -1.0827      6.8723      5.1772
H      2.8813      8.4256      7.9149
H      3.0122     -0.7789      2.0567
H      1.1300      7.0044      0.7083
C     -3.3054     11.7640      7.1470
C     -6.7022      4.7402      8.9831
C      3.0457      7.5300      4.9724
C     -8.1091      4.9823     12.8235
C      4.7552      8.8839      1.9307
H     -3.4361      7.6102      4.8007
H      8.3740      7.6358      3.9448
H      3.8638      1.5493     10.3705
H      4.2451     12.5142      3.5573
C     -0.3842      3.8889      8.2919
H      8.7906      9.2030      1.5234
C      0.3190      9.1143     -0.7982
C      1.5600      2.0845      7.9328
H     -2.4647      6.8648     -2.3883
C     -0.6686      6.4016      1.4653
H     -7.2438      7.2365     12.4562
H      6.4790      9.0882     -0.2880
C     -2.7376      7.5198     -0.4456
O      2.3709     11.0031      0.6692
C     -6.6386      8.3334      8.8313
C      3.8115      8.3849      7.2982
C      3.4756      1.6929      9.3654
C      2.9999      1.2823      4.9073
H     -1.4591     10.6875      1.8288
H     -7.3644     12.0302      7.2853
H      2.1167      4.2487      9.4195
C      4.2589      3.3065      3.2292
H     -3.3651      7.8469      7.0706
C     -2.0638      8.4337      0.4117
C     -1.7559      7.1622     -1.5774
H     -1.6560     10.7631      6.0601
C      5.1444      2.0253      5.0136
H      4.2885     -0.1226      6.2532
C    -10.9045     12.7553      9.2326
C     -8.6780     11.2255      8.7144
C     -2.3173      5.2564      3.6322
C      4.0599      9.6112      6.4689
C      2.8011      3.6808      2.6396
C     -7.8884      6.7588      9.8857
H      2.6062      7.9834      0.5139
H     -3.4780      5.5604      3.6498
H      1.4866      3.3590     -0.4916
O      5.7331      6.3878      6.4716
C      0.7152      8.2677      4.3065
H     -8.6701     10.7790      7.5161
C     -2.8718      8.8844      3.5052
C     -2.1952      7.7413      2.7475
H     -6.6326      7.4546      8.0744
H      8.6227      3.3685      3.6526
C     -2.7359      8.5932      7.7491
H      2.0607      3.8914      4.5889
H      1.2136      9.4959     -2.6189
H     -7.4718      3.1512     13.5100
H      0.2348      4.8228      8.1902
C      3.2585      1.1355      1.9750
C     -0.1853      8.6699      1.9536
O     -8.3459      3.7125     13.7097
O     -5.5953      3.9857     10.8352
C     -0.1008      2.8543      1.5779
C     -0.0395      3.9355      3.8677
C     -5.8686     10.8049      7.9186
H     -3.0241      9.5941      7.5788
H      3.1247      9.8452      5.8053
H     -1.0562     10.2618      4.3204
H      0.1519      8.0416     -2.4654
O      0.2823      9.6907      6.1001
C     -7.1532     11.8459      8.2503
C      0.6950      7.2628      6.7591
C      1.6372      7.8902      0.9140
H      2.5785      8.3006      2.5414
C      0.5566      7.8374      2.8631
H     -4.4721     13.7783      8.3050
C      2.7283      0.2055      4.0723
C      0.0329      2.6357      7.7376
C     -2.8023     10.7519      6.3545
C     -2.3727      3.5675      5.2883
C      4.9773     12.2037      4.2434
C      3.0165      4.1803      9.9182
C      0.9790      1.8626      1.3916
C     -1.3707      7.7777      1.5408
C     -9.5860     12.4172      8.8165
N      2.0998     -0.7836      4.6588
C      3.5434      0.4991      0.6229
O      4.0023      6.0967      2.1704
C     -3.2811      6.2231     13.1505
H      6.1566      9.8688      6.1662
H     -0.7402      1.9441      7.6095
C     -2.1274      4.5061      2.4253
C     -3.0015      8.1581      9.1352
H     -5.4123      2.2243      9.1467
H      1.2745      1.1137      7.4628
H     -6.0814      4.1483     11.5140
H     -4.9058      9.4582      9.3428
C     -2.5421      9.6898      0.5092
H     -8.5433      6.7651      8.9277
H      1.0562      7.2120      9.0342
H     -0.7212      9.3403      2.7820
H      1.3368     10.6162     -1.2020
H      4.4615     -0.0950      1.0161
C      1.8982      7.4497      2.3120
H      2.6333      0.1011      0.3347
C      0.6099      9.9500     -1.8143
H      2.6002      9.8418      3.7596
C      4.3424      8.1102      4.1833
C      7.9740      7.4386      3.0246
C      7.7605      9.6820      1.2383
C      6.0414      8.1998      1.8174
C      4.2575      5.9296      6.1178
C      1.8945      5.0015      2.3744
C     -6.7818      5.5971     13.1209
C      5.5694      7.2819      4.2293
C     -4.5881      6.1181     13.3782
C     -8.5803      4.7320      7.3658
C      1.3744      5.1526      0.7783
H     -2.9836      6.5989      6.2301
C      6.5216      7.1583      5.4499
H     -0.8856      2.1929      5.6782
H     -2.8151      5.1927      1.8730
C     -5.6237      5.2209     13.8748
H     -1.1049      4.3886      3.0331
O      7.5845      7.5578      6.0675
H     -4.7771      9.1416     11.4626
H      7.8686     10.5719      0.4891
H      0.3155      3.2412      3.3020
H     -2.5330     11.3993      0.8833
H      2.1079      5.0201     -1.1361
H      4.8160      5.7275      4.0559
C     -0.4411      7.7240     -1.6084
H      7.0037      5.2860      4.1287
C      2.7029      6.1356      2.6849
H      1.8180      5.8343      9.3596
C     -2.6297      4.8843      4.9598
C      0.3600      6.9903      5.1903
H      4.7841      7.7877      7.9716
H      2.1044      1.9207      4.7168
C      1.2504      5.7817      4.6632
H    -11.7927     12.3012      9.1238
H      1.4404     -0.5634      2.7689
H      3.4023     10.7168      2.5149
H     -0.7159      7.7104      8.6423
C     -4.3835      6.3606      8.1073
C      4.0471      0.6938      8.3767
C      6.5439      7.5682      2.9708
C     -3.4315      9.6455      5.7781
C     -0.0672      6.4412      2.7763
C     -1.4145      6.6032      3.6402
H      2.9187      3.5780      0.0847
H     -8.2415      4.8709     11.8666
H     -2.2113      2.7900      6.3798
C      1.9415      1.4046      9.2527
H     -0.6081      9.2027      7.4615
C      0.7231      5.3105      3.2150
C      5.4942      3.8698      3.0156
H      1.5531      4.8848      8.1909
H     -4.8670      8.7671      7.5846
C     -5.7166      3.9387      9.4441
H     -2.5063     12.0850      7.9532
H     -6.0304     10.7763      6.8315
C      1.9377      6.7341      8.7556
C     -2.0543      5.8967      5.9030
C      2.5116      0.0298      2.7125
C      1.1313      4.7959      5.7960
C      2.1689      6.5630      7.2363
C      2.1647      4.2304     -0.3377
H     -1.4004      5.6398      1.6378
H      4.3473      1.1391      2.5168
H     -2.1960      8.7328      9.5759
H      4.3238      1.1155     -0.1239
H     -5.3158      5.7797      8.1463
C     -0.4568      9.4059      4.8931
C     -3.9262      7.1624      9.3424
H     -8.9113      5.7077     13.2349
H     -3.8053      9.4422      3.3619
C     -4.7043     11.7093      8.0766
H     -2.9030      3.7651      2.6380
H     -4.3778      9.6867      6.0610
C     -0.1912      7.4167      7.7463
C      0.2959      3.8272      5.3827
O      7.8334      5.6226      4.4881
C     -1.4462      8.2563      5.4891
C      6.2084      1.7484      7.3818
C      5.1511      1.7565      6.3737
C      3.3450      0.5019      6.2983
H     -4.4138      7.3165      7.4271
H      7.2005      1.4423      7.1226
H      4.7470      3.2784      8.7575
H     -6.1669     13.1649     10.1265
H      0.8641      8.8310      6.3022
H      5.6703     12.9962      4.5515
C      1.9454      5.0215      6.9996
H      0.0439      4.0138      1.2602
C      4.0044      5.4079      4.6864
C      3.5623      3.2182      8.9931
H      7.2229     10.0971      2.0361
C     -4.6408      7.0873     10.6695
H      2.8331      3.9235     11.0239
H     -1.5721      5.9527     -1.6512
C      4.0348      2.7734      4.6029
C      4.9869     10.1794      5.7374
C     -6.3163     12.8347      9.0944
C     -5.5796      9.4038      8.4357
C     -7.3559      4.1558      7.9687
C      5.6044      0.8869      8.3338
H     -0.8452      4.0220      7.4007
H     -3.3768     10.0334     -0.1370
H     -2.7996      4.9484     13.2757
C      1.1721     10.3514      1.5181
H      3.1232      5.1928      9.7309
H     -2.3477      9.9496      3.3394
