285

C      6.8237     -3.9095     13.5108
N     -1.8160     23.9476    -11.7024
C      3.9840      1.6021      7.2183
C      2.4162      2.3805     15.3475
H      1.4722      1.1295     10.1647
C      7.6401      4.9380     15.1015
H     -3.1294     19.6448    -10.4731
C      7.8007      3.6724     15.7354
C      3.3602     17.1084      5.5630
C      6.1002     -3.1960     11.2697
C      3.2232      7.2698      6.8239
C      6.0382     14.6642      4.0869
C      6.3741      9.7674      8.9341
C      0.8397     21.6111      0.7768
C     -3.8403     25.0749    -13.2352
C     -4.6891     26.8036    -11.6626
N      0.5327      2.7259      6.0788
H      5.8355     -4.3269     10.7803
C      0.7324     19.3070    -12.1281
O     -0.9748      2.8047     13.9324
C      3.3843      4.2390      7.1800
H     -0.4285     21.1561     -2.4401
H     -5.4790     27.2407    -10.9696
C      2.9379     19.5112      4.7623
C      3.5957     -2.3424     16.4964
H     -3.0608      3.7366      6.2664
H      5.1583      7.1055     14.3018
C      3.7304     -3.7107     16.1060
H      6.0798      7.8855      9.6698
H      5.5978     -2.5014     10.4725
H      4.1198      5.7042      8.8464
H     -0.9418      5.4417      6.8267
C      3.4432      2.7719      7.9271
H     -4.1718     24.0022    -15.2514
H      6.9249     14.0119      4.3680
C      7.9517     12.4094      8.3793
C     -3.9464     23.7420    -14.0912
C      6.4958      5.7283      9.7785
H      1.9127     13.0602      8.3862
H      2.5437     18.5306     -3.8631
C      6.5127      3.0656     16.2495
H      4.8891      3.8800      8.9011
H      3.8934     11.6622      9.6514
H      3.4237     20.2937     -4.1665
C      4.1517     -1.9461     17.7151
C     -2.8960     21.5029     -7.5357
O      1.9174      8.6535      5.1994
C     -1.3343     21.1899     -5.6534
C     -3.8902     20.7382     -0.7327
C      7.6262     -5.3078     13.0063
C      6.6472      6.8280     12.1974
H      5.5604      4.3051     14.7471
H      6.2824      3.3443     11.9063
H      4.4909     -2.8920     13.9759
H      1.7139     -1.7514     18.9511
C      8.0969      2.6546      8.7093
H      0.6678      1.4589     14.0597
C      7.0061      5.9400     11.0524
C      7.9289      5.7667     16.1730
H      8.2237      8.0674     15.8249
C     -1.1495      6.6659      5.2079
H      4.0453      8.5664      8.7397
H      3.1380     -1.5054     15.7649
H      3.8715     19.0748      2.4794
H      2.9681      4.4593      9.9929
H      2.8513     18.8751    -12.2096
C     -3.1374     24.5996     -5.8960
C      7.0163      4.9741      8.6639
C      3.1361      7.8886      5.4052
C     -3.4487     27.4496    -11.8035
C      5.4634      4.0868     12.3189
C      4.4460     -3.7222     14.7748
H     -4.0144     21.2945     -7.4463
H     -3.7160     21.7737     -9.5072
H      3.5197      0.5084     10.4437
H      7.2147      9.4700      9.4946
H      5.5537     13.9013      5.9684
C     -0.3200      3.2475      8.1323
H      7.7606     -3.7126     15.1807
C      0.4741     21.5117     -0.6381
C      1.8868      2.1114      8.2325
H     -2.1673     19.6999     -1.9654
H     -2.7421     22.2966    -14.4361
C     -0.5982     19.2438    -11.4007
H      6.5762      7.3428     11.4186
H     -1.9810      2.2343      5.5888
H      8.2427      7.9630      6.6813
C     -2.7560     20.2811      0.0337
O      2.7227     23.2260      0.9731
C      6.7365      8.8277      7.7533
C      4.1817      8.3996      7.5325
C      3.5083      1.2545      9.5036
C      3.3886      0.4811     17.9759
H      7.4835     -2.0433     14.3150
H      7.1968     13.8317      6.7293
H     -2.4552      5.3976      6.0994
H      5.4476      6.7288      8.3215
C      4.2139      3.5753     16.3621
C     -2.2379     21.5244    -12.1719
C     -1.6514     19.8003     -1.0477
H      8.5116      1.6729      8.8854
C      5.4762     15.5612      5.3375
H      1.7955     11.6611      9.5448
H      5.3477     -0.3753     18.5976
C      2.1243     11.8882      8.6206
C      4.5297     11.0930      7.4673
C     -1.5704      4.8296      3.7374
C      4.0282      9.7990      6.8718
C      2.9565      3.5251     15.7409
C      5.7360      6.8992      9.2844
H      1.9186     11.5069      7.6798
H      2.3502     20.5520     -0.0512
H     -0.1820     24.3714      1.5042
H     -2.9245     25.5441    -13.5163
H      2.2206     16.1460    -11.9957
O      5.4866     19.8538      6.2702
C      0.8442      7.8848      4.6188
H      4.4692     11.8259      6.9332
C     -2.5661     21.6044     -9.4016
C     -2.2512     20.4122    -10.0046
H      8.7768      3.4757     16.4638
C     -2.5255     21.1257     -5.1083
H      2.2630      2.6750      4.4737
H     -1.9328     23.8790    -14.6448
H      4.8260      5.3555     11.2626
C      2.7900      0.9918     15.2761
C      0.0242     21.4946    -10.8698
O      4.8601      4.4313     11.3180
O      7.1844      3.4540     10.6141
C      0.0730      3.4035     14.6147
C      0.3636      3.8490      4.0324
C      7.0079     11.0253      6.8799
H     -4.8293     23.7165    -13.4863
H      2.8024      9.6510      7.0360
H     -0.6865     22.2102     -9.0038
H     -1.2953     21.9297     -0.8508
O      0.2279     22.9783     -7.5794
C      5.9564     11.0073      8.1454
C      0.7080     20.1735     -5.9241
C      1.6911     20.3754      0.8891
H      2.8508     21.4278      2.5994
C      0.9294     20.5873     -9.7397
H      7.8083     13.2191      7.5636
C      2.1492     -0.0843     17.5857
C      0.7650      2.6790      7.6294
C     -2.4218     23.7594     -6.6820
C     -2.3217      3.1560      5.3835
C      4.3986     -0.6015     17.9695
C      2.5994      3.5560     10.0826
C      0.9792      2.4648     14.7877
C     -1.1699     20.6749    -11.2757
C      3.6772     11.9374      8.5837
N      1.3723     -0.8573     18.4452
C      2.5396      0.5448     14.0076
O      4.7761      6.3356     13.7754
C     -3.6198     19.3207      0.8404
H      5.8788     22.6101      5.8013
C     -2.0423      4.5249      2.6626
C     -2.6395     20.9124     -3.6672
H      8.9396      3.6463      8.5051
H      2.9176      0.1903      7.1953
H      7.5744      8.7491      5.9093
C     -2.1205     23.0279    -12.6123
H      4.7459      7.1927      9.8554
H      1.5665     19.6370     -3.4611
H     -0.1180     22.5584    -10.5861
H      1.7358     20.9692     -2.0990
H      3.0130     -0.3688     14.2868
H     -0.9510      3.5951      9.0191
C      2.3085     20.4518      2.3716
H      1.5716      0.1160     13.4216
C      1.6160     21.7570     -1.2807
C      6.3435     -2.9319     12.6213
H      7.5661      5.1078     11.4933
C     -2.5415     23.2111    -14.0226
H      0.3509     -0.9133     18.1904
C      4.0948     21.5343      4.3453
C      7.6635      7.1918     15.6033
C      7.9984     -3.0712     14.1516
C      5.8735     -4.3448     14.7244
C      4.3353     19.2236      6.6828
C      1.9445     18.1438    -10.1912
C      6.0204      5.6320     13.0419
C      5.3006     20.5409      4.1055
C      8.1337      6.9130     14.1911
H      2.6371     21.9332     -0.5899
C      4.3699      5.2782      7.8259
O      0.8220     24.3948      1.4248
C      1.8916     18.3043    -11.9112
H     -3.1414     21.8506     -5.7541
C      5.9575     20.4884      5.2600
H      0.2822      1.7357      5.7255
H     -2.9223     27.5295    -12.8163
H     -2.7410      5.0731      1.8948
C      7.0875      5.5587     14.0074
H      0.1870      3.0676      3.5517
O      7.3924     20.4950      4.9434
H     -5.0602     21.6719     -2.3899
H     -3.0468     21.6606    -11.2938
H      1.2136     17.2031    -13.3653
H      4.8806     18.4054      4.8345
C     -0.7336     21.0975     -1.4330
H      5.8370      3.6333      7.4423
C      3.0348     19.1525      3.1363
C     -0.9389      4.1162      4.8026
C      0.3644      6.7860      5.5662
H      2.3334      1.6856      6.0670
C      1.3349     18.6432      4.9564
H      1.1113     -0.5920     16.0598
H     -2.6656     19.7890     -3.4273
C      7.8444      7.5491      7.7955
C      4.1265      0.5441      8.3276
C      6.1743     20.7221      2.8338
C     -2.9740     23.0248     -7.6152
C      0.0171     19.2765     -9.9642
C     -1.4664      6.4670      3.7719
H     -2.3881     25.2896     -5.2503
H      3.3701     17.1694    -13.1714
H      3.9676     -4.3999     13.8972
H      4.9087      4.0078     13.3296
H     -3.0520      3.0337      4.5229
C      2.0243      1.4798      9.4515
H     -1.3512     23.7206     -6.5311
C      0.8886     18.2112     -9.4224
C      5.4898      3.8244     15.6731
H      1.2329     17.3877     -5.0718
H      5.4363      8.2270      7.6965
C      7.4195      3.5649      9.4125
H     -1.6948     24.8323    -12.2187
H      6.3423     11.6692      6.2930
C      2.6551     19.5284     -4.1525
C     -1.2387      5.3187      5.8620
C      1.8635      0.2512     16.2793
C      1.9266     17.4449      5.6686
C      2.0378     19.4782     -5.5065
C      2.2086     16.9721    -12.8848
H     -1.2949     18.4144    -11.3692
H      3.9529      0.7378     15.9202
H     -3.8673     22.7339     -3.0942
H      2.7530      1.1381     13.2096
H      7.1316      6.4171      7.4620
H      6.8647     15.1561      7.9563
H     -2.2487     23.5211     -8.3877
C     -5.0046     25.5574    -12.4662
H      5.1572     14.0616      3.4337
C     -0.2996     21.7263     -8.0167
C     -3.3996     21.7282     -3.0126
H      9.0635     -3.0029     13.8208
C      8.4108     11.2821      7.4911
H     -2.0780      3.3365      2.3143
H     -4.0653     23.2373     -7.8224
C     -0.1592     20.7246     -5.1330
C      1.4402      3.1525      5.0776
O      8.7539      5.5191     16.9819
C     -1.4939     20.8676     -7.2022
C      6.3796     14.3536      7.4148
C      5.2162     14.7443      6.4354
C      3.0079      0.8072      6.3767
H      4.8324      2.9939      9.7347
H      8.1664     12.3345      9.6108
H      0.0391     23.1306     -6.6455
H      3.5467      1.4625     17.3262
H     -0.3431     19.6725     -4.4322
C      1.9068     17.7663     -5.7424
H      0.5516      4.6564     14.6031
C      3.9093     18.5637      5.4255
C      3.6782      2.6895      9.4299
H     -6.0003     25.0500    -12.9476
H      0.4087     18.9608    -13.1555
C     -4.3380     21.1139     -1.9154
H      2.8639      3.5617     11.2129
H      7.6615      4.9768      7.6481
H     -1.3750     18.6064     -0.4806
C      4.2956     16.2568      4.7959
C      4.5792     22.4906      5.4820
C      6.4959     12.2780      8.6346
C      6.8714      9.4258      6.4339
C      5.5687      4.4850      8.1780
C      5.6938     13.3296      8.4857
H     -0.9253      3.2702      7.3377
H      6.3295     -1.8790     12.8869
H     -3.5421     18.4670      0.2330
C      1.5417     22.9786      1.1477
H      1.4612      3.6180     10.0068
H     -1.7849     22.1883     -9.8676
