290

C     20.2391    -17.0191      0.8744
N     11.3976     10.5249    -11.4923
C     16.7971    -11.4271      7.3273
C      2.3478      2.3060      2.1163
H     14.1067      0.9662      9.9087
C      7.9310      4.9162      2.6502
H     10.0126      6.7076    -10.6353
C      7.7419      3.6883      2.9582
C     16.3182     -8.6373      5.7643
C     19.7436    -15.6883     -0.9877
C     16.2035     -5.5794      6.8354
C      6.1173      1.9176      3.9865
C     19.3191     -3.0512      8.7081
C     13.7311      8.8435      0.4791
C      9.4072     12.0920    -13.1390
C      8.4096     14.0930    -11.9685
N     13.6820      2.5642      6.0533
H     20.2734    -16.4874     -1.6279
C      1.0286      6.2970      0.5765
O     -0.8555      2.7993      0.8026
C     16.0871     -8.8606      7.2078
H     13.4452      6.9295     -2.6054
H      7.4922     14.3530    -11.1155
C     15.9502     -6.3945      4.7069
C     16.2844    -15.4200      3.0487
H     10.9066      3.1229      6.6631
H      4.3627      5.9988     13.5113
C     16.6671    -16.7342      3.0024
H      5.1335      7.0932      8.8259
H     19.6134    -14.7536     -1.5830
H      4.2794      5.0611      8.8973
H     12.3904      5.0231      6.4875
H     19.0410      1.0861      9.0665
C     16.2854    -10.0436      8.0640
H     10.0413     12.2588    -14.8691
H      6.8058      1.2932      4.3205
C     20.6746     -0.4016      9.0028
C      9.7249     11.3210    -14.2904
C      6.0687      5.6712     10.1007
H     14.5483     -1.0229      9.6029
H     14.8560      5.6636     -3.5343
C      6.3130      3.1854      2.9702
H      5.4544      3.2742      7.4741
H     16.9194     -1.3615      9.4760
H     16.1164      6.9511     -4.2668
C     16.8042    -15.0254      4.4641
C     10.2956      8.5446     -7.9809
O     14.9309      8.8517      5.0635
C     11.5891      8.0913     -5.7400
C      8.9354      7.7189     -1.0185
C     20.7655    -18.3455     -0.0135
C      6.6691      6.7679     12.2813
H      5.5280      4.9038      2.5226
H      6.1471      3.9151     12.3142
H     17.4117    -16.3032      1.3880
H     13.3814    -12.7972      5.8383
H     20.8591     -5.7723      9.2300
C      7.5437      2.4292      8.9993
H      0.4486      1.4143      1.4586
C      6.9563      5.9811     11.0773
C      8.3542      5.9135      3.6385
H      8.6411      7.6152      2.6905
C     11.9718      6.7938      5.1662
H     16.7880     -4.2813      8.5764
H     15.8764    -15.4578      1.8140
H      4.0931      6.3141      2.6297
H     16.1916      4.3829     10.1802
H      3.0303      5.5765      0.8170
C      9.6970     11.4754     -5.7702
C      6.4378      4.6426      9.0996
C     15.9923     -5.0849      5.3054
C      9.4479     14.9607    -12.0460
C      5.4434      4.4400     13.0242
C     17.5431    -17.1490      1.9573
H      9.6685      7.5851     -7.7260
H      8.2118      7.7644      4.5984
H     16.4968      0.6312     10.6128
H     19.4202     -2.6772      9.9696
H     17.9281    -13.3752      5.2554
C     12.8234      2.6352      8.2344
H     20.8831    -15.4841      2.1511
C     13.4431      8.4889     -1.0838
C     15.0721      2.4383      8.2425
H     11.0035      6.3168     -2.0203
H     11.7006      9.6212    -14.3350
C     -0.2929      6.3433      1.3696
H      6.0365      7.5788     12.1629
H     10.3628      2.1269      5.3171
H      5.3552      3.5148      5.2782
H     21.3552     -5.3872      7.6206
C     10.3072      7.2197     -0.3482
O     15.5198     10.4153      0.8225
C     19.8425     -4.2295      7.7565
C     16.9864     -4.3961      7.5986
C     16.4490      1.4313      9.7847
C     16.1730    -12.5305      4.9660
H     21.4579    -15.7613      0.6732
H      6.5822     -0.2715      6.7403
H     10.2811      5.6098      6.1125
H      3.9981      6.2637      9.7866
C      3.9038      3.6533      3.5040
C     10.7615      8.4710    -12.3014
C     11.4799      6.6918     -1.2940
C      5.0916      2.4143      5.1555
H     14.6736     -1.1207      7.7650
H     17.8151    -13.3364      3.9163
C     15.0305     -0.6570      8.6545
C     17.2770     -1.6649      7.5239
C     10.9689      5.0759      3.7836
C     16.6585     -3.0685      6.9288
C      2.6848      3.5520      2.7011
C      5.0577      6.6277      9.8473
H     15.0842      0.5537      8.4763
H      2.9520      7.7684      0.8605
H     13.8184     11.8133      1.6216
H      7.5646      6.2238      5.4175
H      9.9863     12.6507    -12.4834
H      1.3343      4.0569     -0.7437
O      5.7623      6.9831      6.6828
C     13.6246      8.2199      4.5008
H     17.4506     -0.9741      6.6498
C     10.3697      8.2992     -9.3674
C     10.9996      7.1247    -10.2776
H     21.1772     -2.6311      8.3348
H      8.1889      3.3000      3.9309
C     10.3966      8.0364     -5.1726
H      9.3798     15.6798    -11.3667
H     14.7975      3.5255      4.3431
H     12.0242     11.4007    -14.3187
H      5.0798      4.8428     11.5006
C      2.8840      1.0480      1.8352
C     12.9170      8.6886      1.9488
O      4.3677      4.8666     12.1510
O      7.9792      3.9199     10.5966
C     -0.0637      3.2552      1.6562
C     12.8376      3.9820      4.4745
C     19.9890     -1.9722      6.9557
H      8.8943     10.6173    -14.5944
H     15.4567     -3.0439      6.7918
H     11.7485      9.7383     -8.1746
H     12.3849      8.4804     -2.8967
O     13.0401      9.6611     -6.7905
C     18.8547     -1.9557      7.9921
C     13.7924      7.0983     -6.2183
C      1.8187      7.5802      0.9266
H      2.5269      8.4822      3.3047
C     13.7266      7.8000      2.8270
H     21.3214      0.5668      8.5711
C     14.9682    -13.0208      4.2810
C     14.0849      2.2122      7.2954
C     10.4366     10.9931     -6.8170
C     10.4216      3.2141      5.6919
C     17.1242    -13.7201      4.8571
C     15.8437      3.6193     10.2595
C      0.8494      2.1566      2.0871
C     11.8309      7.6925    -11.4085
C     16.4543     -0.7406      8.6083
N     13.9974    -13.6110      5.2955
C      2.4347      0.4581      0.5336
O      5.0624      6.2728     14.0635
C      9.6205      6.1989      0.5555
H      5.4796     10.1301      5.5329
C     10.6920      4.3558      2.6372
C     10.3873      7.6803     -3.7027
H      8.3100      2.5895      8.2022
H     15.1143    -11.5486      6.6606
H     19.2990     -3.8061      5.8861
C     11.2104     10.1448    -12.7116
H      5.1446      7.3908     10.6827
H     14.5964      7.7326     -3.6187
H     12.4637      9.5667      2.4028
H     14.9827      9.4760     -2.2262
H      2.7144     -0.7626      0.7169
H     13.3520      3.0149      9.3194
C      2.1187      7.5088      2.4553
H      1.8783      0.9916     -0.3522
C     14.2561      9.3508     -1.6368
C     19.5124    -15.9605      0.2175
H      7.9196      5.7619     10.3826
C     11.1961     10.6823    -14.0296
H     14.5408    -14.0328      6.0248
C      4.1483      8.6900      4.4330
C      7.9020      7.4094      3.4228
C     21.3731    -16.0928      1.5466
C     19.0964    -17.2268      2.0648
C      4.3213      6.2147      6.5566
C      2.0941      5.0412      2.4813
C      6.1705      5.8197     13.3588
C      5.4087      7.7072      4.3125
C      8.3387      6.4530      0.8473
H     14.9581      9.7935     -0.9729
C      4.3814      5.1290      7.7093
O     13.3892     11.1112      0.8473
C      2.0409      5.2548      0.9523
H      9.9161      8.8921     -5.6331
C      6.2040      7.5898      5.3811
H     10.1543     15.1964    -12.9255
H     10.8436      4.3104      1.4642
C      7.4141      5.5618      1.3122
H     12.5368      3.5346      3.3547
O      7.4769      7.2525      5.5615
H      7.6519      7.9156     -2.7070
H      9.8723      8.6433    -11.7039
H      2.8464      4.2185     -0.3878
H      4.7065      5.4737      4.7178
C     12.6676      7.5965     -2.0246
H      6.5996      4.2536      7.3359
C      2.8975      6.2991      3.0857
C     11.4064      4.4273      5.0793
C     13.4251      6.7421      5.2549
H     18.7285     -3.9875      8.8213
H      2.8145      2.1390      4.8199
C     14.3770     -7.3067      4.8302
H     13.6870    -13.6692      3.1971
H     10.6064      6.6941     -3.4506
C     20.5484     -5.3845      8.1731
C     17.0466      0.6754      8.5455
C      6.3103      7.7945      3.1400
C      9.6059      9.9049     -7.6072
C      0.0558      6.3291      2.8087
C     11.6926      6.3852      3.7654
H     10.6658     12.2515     -5.2691
H      1.8818      3.2362      0.6248
H     18.3106    -17.8648      1.2933
H      4.8558      4.2627     13.8958
H      9.4201      3.3766      6.0835
C     15.0063      1.5313      9.2837
H     11.6050     11.0938     -6.1991
C      0.8568      5.1278      3.4192
C      5.2755      3.9891      3.0114
H     13.8240      4.5401     -4.8390
H     18.1216     -4.7281      7.4304
C      7.5143      3.7719      9.5625
H     11.5666     11.5826    -11.4579
H     19.5869     -1.4590      5.8231
C     15.0914      6.7337     -4.0402
C     11.4384      5.4884      5.9764
C     14.7120    -13.3537      3.0745
C     14.5765     -8.3516      5.8275
C     14.8401      6.5067     -5.4946
C      1.9510      4.1324      0.1631
H     -1.0118      5.7328      0.7559
H      3.4508      0.7628      2.6110
H      9.0332      9.6081     -3.7268
H      3.5714      0.8070      0.5041
H     20.2301     -6.4808      8.1045
H      6.5292      2.7715      8.5849
H      9.6198     10.6001     -8.6029
C      8.2342     12.6646    -12.7496
H      5.5985      1.1080      3.3866
C     12.5881      9.0649     -7.8161
C      9.3936      8.6106     -3.3024
H     22.2150    -16.3982      2.2043
C     21.3026     -1.5394      7.6977
H     10.7416      3.2039      3.0378
H      8.5577      9.9044     -7.2936
C     12.8117      7.6219     -5.4010
C     14.0120      3.5041      5.2177
O      8.8822      5.4354      4.7647
C     11.5450      8.1182     -7.2489
C      6.0081      0.6859      6.9263
C      5.0915      1.6443      6.4164
C     15.8956    -12.3271      6.4686
H     17.7507      3.5712      9.5719
H     21.2106     -0.8650      9.7751
H     13.6642      9.2972     -6.3131
H     16.6938    -11.7767      4.2673
H     13.0982      7.7670     -4.0661
C     14.6873      4.8964     -5.6100
H      0.4702      4.2253      1.7138
C      3.9214      5.6386      5.3657
C     16.8019      2.8606      9.4942
H      7.2287     12.6696    -13.2029
C      8.5255      8.2130     -2.2162
H     16.3284      3.6677     11.4302
H      7.3104      5.1367      8.7800
H     12.0319      5.8382     -1.0167
C      3.7718      2.9350      4.8470
C      4.4197      9.9064      5.3795
C     19.2779     -0.6734      9.0044
C     19.9886     -3.4272      6.6865
C      5.6545      4.4458      7.7430
C     18.4429      0.4029      8.4363
H     12.3712      3.3574      7.6781
H     18.9528    -15.3160      0.7893
H     19.0109     -1.1894      9.8997
H      0.5822      1.5648      3.1366
C     14.3168     10.1323      0.7682
H     14.7899      3.6532     10.3735
H     10.6909      9.0074    -10.0053
