288

C      7.1145      8.6072     13.8488
N     10.6356     -2.2824      1.1529
C      3.6577      1.5708      6.9769
C      1.8246      2.1857      3.0155
H      1.1406      0.5151      9.1475
C      7.6692      4.8776      2.5439
C      7.4597      3.5720      3.1923
C      3.2062      4.3895      5.8038
C      5.7605     10.1074     12.0310
C      3.3487      7.4405     19.6535
C      5.9756      2.2706      4.2364
C      6.3960     -3.1485      9.2700
C      1.1142      8.5585     13.5981
C      9.3829     -0.7782     -0.8900
C      8.4815      0.6029      1.0076
N      0.5446      2.5226      6.1620
C     13.8798     -6.7046      0.7068
O     -1.1324      2.4275      0.8927
C      3.2452      4.4251      7.3286
H      0.2402      6.7545     11.2780
H      7.6670      0.5483      1.8948
C      2.8333      6.5107     17.3923
C      4.1509     10.5154     16.1294
H     -2.0123      3.0781      6.1126
H      4.4547      6.4457      0.5666
C      4.1266      9.0884     15.9660
H      4.7285      7.2570     -3.7953
H      5.7165     10.4923     11.0664
H      3.8849      5.9319     -4.2588
H      5.6519      1.3150      9.3013
C      3.2733      2.9438      7.8436
H      9.8918     -1.7671     -2.5720
H      6.8858      1.6683      4.5755
O      1.5824     10.1155     15.6038
C      7.7317     -0.3194      8.8836
C      9.5007     -2.1292     -1.5802
C      6.3935      5.8860     -2.8462
H      1.4295     -0.8197      8.8871
H      2.2598      5.9681      9.0857
C      6.1604      3.2776      3.3401
H      5.0850      3.7150     -4.8449
H      4.9677     10.3483     12.8337
H      3.9326     -1.6091      8.9585
H      2.8935      7.4729      9.1909
C      4.8435     10.7654     17.3770
C     10.1537     -4.1800      4.9858
O     15.1458     -4.2258      5.0089
C     -1.3926      8.5132      6.8623
C     -4.1508      7.8772     12.1089
C      7.7622      7.5686     13.1793
C      6.7457      6.6450     -0.5339
H      5.2878      4.3893      1.9886
H      4.7296      9.8555     14.2751
H      0.4686     -1.3173      4.2413
H      7.3378     -6.4581      8.9681
H      3.1437      9.5842     12.8091
C      8.2168      2.8258     -4.0550
H      0.0890      1.3282      1.6529
C      7.3893      6.4547     -1.8625
C      7.9747      5.8324      3.5960
H      8.1200      7.8839      2.5115
C     -0.9155      6.7923      5.1496
H      2.9248      8.9689     20.9961
H      4.6003     11.2837     15.5565
H      4.0866      6.2192     15.4566
H      4.0368      3.7783     10.9103
H     16.0265     -7.9305      1.0094
C      9.6893     -1.4465      7.6658
C      6.5815      5.0263     -3.9187
C      3.2130      7.6965     18.1690
C      9.6087      1.6142      1.0988
C      5.4100      4.4706     -0.2692
C      4.6408      8.8323     14.5636
H      9.3643     -4.8444      5.3268
H      8.0273      7.6296      4.2905
H      3.9572      0.8244     10.1138
H      7.5350     -2.9637      9.9123
H      6.0654     12.2959     18.2172
C      0.0395      3.8070      7.9541
H      8.3920      9.5546     15.5105
C      0.4790      8.6720     12.4036
C      1.8285      2.4174      8.1588
H     -2.1305      6.5429     10.7762
H     11.1324     -3.8106     -2.0286
C     12.5562     -6.6935      1.4445
H      5.7028      7.1489     -0.7062
H     -1.5570      2.0650      4.8726
H      7.0718      7.0674      6.5327
C     -2.8407      7.3649     12.7257
O      2.8197     10.3308     13.3922
C      7.0359     -4.1776      8.4485
C      3.6984      8.8234     20.3749
C      3.3578      1.3355      9.4107
C      2.9712      0.3632      4.9702
H      8.2620     10.5474     14.1807
H     10.6474     -2.1686      2.1658
H      6.7416      0.3340      6.9963
H     -2.7186      5.6672      5.5793
H      4.9494      6.3805     -1.8662
C      3.9297      3.5336      3.4635
C     10.9423     -4.5484      0.4231
C     -1.7366      6.8380     11.7952
H      8.8964      2.5934     -3.1745
C      4.9521      2.3711      5.1977
H      2.0734     -2.0523      9.1390
H      5.1301     12.6884     17.0182
C      2.1311     -1.2293      8.2267
C      4.6794     -1.8249      7.4445
C     -2.0406      5.2412      3.2775
C      3.9709     10.1157     19.3258
C      2.5173      3.4844      2.9042
C      5.3012      7.0231     -2.7666
H      1.9798     -1.4951      7.2775
H      2.8571      7.3173     13.2536
H      8.7603      6.8708      4.8695
H     10.4890     -0.2649     -1.1632
H     15.6432     -9.7541      0.2778
O      5.5781      7.1870      6.6853
C     13.8164     -4.7283      4.5725
H      4.6331     -1.3096      6.5697
C     10.2878     -3.9444      3.3597
C     10.6372     -5.3435      2.7836
H      8.5642     -2.2195      8.9517
H      8.3643      2.9360      3.1429
C     -2.5648      8.5689      7.7836
H      9.0849      2.4894      1.4134
H      1.5995      1.8782      3.9699
H     11.2770     -1.9264     -0.7689
H      3.3977      4.2342     -0.4519
C      2.8130      1.0013      2.2694
C     13.0003     -4.5313      1.7771
O      4.1396      4.8404     -0.6930
O      7.1876      3.6545     -2.0483
C     -0.4348      2.9606      1.7950
C      0.2434      4.0454      4.2105
C      7.2112     -2.1454      7.2522
H      8.6108     -2.8815     -1.4361
H      2.8022     10.5449     19.1508
H     12.4260     -3.3511      3.6555
H     -0.3869      8.0826     10.6811
O     12.9446     -2.8293      5.8989
C      5.9529     -1.9814      8.1677
C      0.9200      7.4269      6.8355
C      1.9174      7.2880     13.8705
H      2.8660      8.4150     16.0533
C     13.8200     -5.2492      2.9876
H      7.9282      0.4489      8.2659
C      2.0999     -0.2429      4.0653
C      0.6331      2.8462      7.5471
C     10.3200     -2.1926      6.7087
C     -2.2410      3.1773      4.9742
C      5.0571     12.0052     17.8353
C      3.2743      3.9270     10.0870
C      0.6366      2.0935      1.9849
C     11.5762     -5.3755      1.5613
C      3.6105     -0.8767      8.2288
N      1.3720     -1.2225      4.6200
C      2.8377      1.4627      0.7083
O      5.1714      6.2145      1.0841
C      9.8030      6.3586      0.8160
H      6.2644     -3.5379      6.3584
C     -2.5269      4.1932      2.4429
C     -3.1024      7.6829      8.5401
H      8.6622      3.3328     -4.8570
H      2.0860      0.3559      6.9534
C     10.8500     -3.2435      0.2531
H      5.4071      7.7429     -2.0477
H      1.1304      7.6142      9.1105
H     12.7596     -3.6682      2.3119
H      0.9726      8.6421     10.2305
H      3.9779      1.5917      0.6733
H     -1.8697      3.2412      0.6212
H      0.2079      3.6994      8.9263
C      2.2730      7.4116     15.4219
H      2.5504      0.7190     -0.0352
C      1.2987      9.1920     11.0672
C      6.7029      9.3617     12.5772
H      8.0282      5.8397     -1.3963
C     10.7505     -2.9710     -1.1914
H      1.6060     -1.2111      5.6806
C      4.2828      8.4516      4.3562
C      7.6554      7.1770      3.1511
C      8.2687      9.6289     14.3262
C      5.9208      8.3312     14.7813
C      4.4674      6.1486      6.6995
C      1.9582      4.9591      2.7724
C      6.0960      5.5249      0.4046
C      5.5062      7.6967      4.2677
C      8.4312      6.2759      0.7855
H      2.0698      9.6388     10.5779
C      4.3402      5.2494     -5.1542
C     14.8571     -7.9355      1.2120
H     -3.1625      9.2791      7.6190
C      5.9631      7.2144      5.4628
H      9.8350      1.7950     -0.0025
H     -2.6426      4.6522      1.6022
C      7.4580      5.2826      1.2871
H      0.1080      2.8088      4.2020
O      7.2638      7.1724      5.6157
H     -5.6137      8.4181     11.2867
H      8.9980      9.5177     13.4276
H     13.6110     -9.7901      0.6238
H      4.7442      5.9474      4.4808
C     -0.4561      7.5096     11.4992
H      6.1159      4.2493     -6.1584
C      2.9758      6.4360     16.0497
C     -1.3523      4.5542      4.4485
C      0.5897      6.8679      5.4517
H      5.4924     -3.3162      9.7554
H      2.9405      2.3357      4.9963
C      1.3461      5.9026      4.7774
H     -2.8877      6.6083      8.2270
C      7.3197     -5.4049      8.4505
C      4.0374      0.4928      8.2681
C      6.2470      7.6485      3.0324
C      9.6971     -2.8110      5.4953
C     12.9029     -6.6502      2.8733
C     -1.3472      6.5669      3.6647
H     10.4271     -0.9337      8.1358
H     14.5257     -8.4368     -0.6705
H      4.0012      7.9944     14.2673
H      5.4248      3.5491      0.4334
H     -3.2992      3.2436      4.8671
C      1.9188      1.3933      9.0315
H     11.3465     -2.7069      7.1548
C      0.6138      5.1867      3.5161
C      5.0242      4.0907      2.8799
H      0.9038      5.2924      7.5248
H      4.5781      8.9695     21.0814
C      7.4715      3.9160     -3.4281
H     10.6974     -1.2515      0.7485
H      7.4477     -1.4312      6.3390
C      2.2032      7.0069      8.7071
C     -1.6841      5.5058      5.4630
C      2.0712     -0.1534      2.7340
C      1.7694      4.9137      5.8462
C      2.0784      6.8412      7.3775
C     14.6559     -9.0673      0.1832
H     12.0012     -7.6606      1.0027
H      3.9653      0.9998      2.6409
H     -4.4060      9.0427     10.1184
H      2.1785      2.2696      0.9704
H      7.6468     -6.0101      7.6723
H      8.0257      1.7091     -4.1267
H     10.1711     -2.2195      4.5767
C      8.3821     -0.4950      0.1429
H      5.5873      1.2700      4.1245
C     12.6602     -3.7499      4.7402
C     -3.8368      8.0360      9.7126
H      9.2348     -3.6702      3.1517
C      8.2906     -1.5685      8.1755
H     -2.7021      3.4615      3.0080
H      8.5487     -2.4640      5.4133
C     -0.2761      7.8238      7.4091
C      0.8401      3.7682      5.4875
O      8.6174      5.8968      4.6667
C     11.6330     -4.5626      5.4532
C      6.1006      1.2666      7.3090
C      4.9571      1.7905      6.4397
C      2.5570      0.8955      6.1952
H      7.0432      1.8862      7.4699
H      4.7806      2.6230      9.4058
H      8.3033     -0.1361      9.8868
H     13.3040     -3.5160      6.6688
H      4.1756      0.6901      4.6638
H     -0.1851      8.0668      8.5423
C      2.0241      5.3257      7.1970
H     -0.3293      3.9190      1.9989
C      4.0383      5.6960      5.2819
C      3.7408      2.7101      9.3008
H      7.2035     -0.8316      0.2886
H     14.0417     -7.0709     -0.1537
C     -4.8306      7.6395     10.7330
H      1.9904      3.8328     10.2518
H     -1.2432      5.8238     12.3926
C      3.8073      2.9506      4.8884
C      4.6022      9.5546     18.2421
C      6.2745     -0.5605      9.0613
C      7.2083     -3.6046      7.0217
C      5.6815      4.5686     -5.0502
C      5.5260      0.6728      8.4831
H     -0.9473      3.8483      7.6614
H      7.7391      9.4298     12.1608
H      5.8689     -1.0276     10.0845
H     10.7688      5.6301      0.5794
C      1.6912      9.8702     14.0153
H      3.3451      4.8113      9.4785
H     10.9096     -2.9933      3.1319
