277

C     -6.0882     -3.9135     13.7726
N     -1.9807     23.5756      1.3317
C      3.9876     14.5102      7.0191
C    -10.5476      2.3819     15.4640
H      0.9723     14.6272      9.7218
C     -5.2396      4.9885     15.5365
H     -2.6073      5.8793     14.4926
C     -5.1919      3.8620     16.4023
C      3.3841     17.1369      5.6314
C     -6.6137     -3.1407     11.4691
C      3.2210      7.5053      6.6894
C      6.2787     14.9018      4.4168
C      6.4975      9.4483      8.8326
C      0.6563     21.6009      0.9019
C     -4.1752     25.2411     -0.5271
C     -4.8083     26.9194      1.1103
N      0.5147     15.4514      6.0480
H     -6.5311     -4.2653     11.3164
C      0.9152      6.2373      0.6496
O    -13.9229      3.0924     13.9405
C      3.3181     17.2042      7.1287
H      0.2815     20.0486     -2.3502
H     -5.0991     27.0378      2.3644
C      2.8604     19.3936      4.5227
C     -9.3077     -2.3666     16.6464
H     -2.2299      3.0127      6.2239
H      5.4908     19.6088     15.0133
C     -9.1711     -3.7601     16.2566
H      5.5566     19.9490      8.4599
H     -6.4041     -2.2131     10.7736
H      5.6111     16.7090      6.0235
H      3.8480     18.6278      8.4036
H     -0.6715      4.9591      6.6907
C      3.4280     15.7272      7.8544
H     -3.5912     25.2296     -1.8180
H      7.1379     14.7318      4.8592
C      7.7830     12.1313      8.9193
C     -3.8493     24.1972     -1.3500
C      6.5232     19.0137     10.0437
H      2.0195     12.4300      9.0176
H      1.8528     18.5021      9.0552
C     -6.3990      3.2015     16.3988
H      5.2103     16.7028      8.7279
H      2.5228     20.0791      9.1856
C     -8.8358     -1.7348     17.5750
C     -2.9168     21.6451      4.8296
O      2.0703      8.7316      4.9163
C     -1.4342      8.3672      7.0525
C     -4.2039      8.0067     12.4338
C     -5.3920     -5.2090     13.1887
C      6.6560     19.7231     12.3799
H     -7.5161      4.7945     15.1661
H      6.5044     16.6961     12.2036
H    -11.3748     -1.5470     18.9987
H      8.3128      6.8256      9.0189
C      8.3072     15.7676      8.6197
H    -12.6878      1.5791     14.6572
C      7.4077     19.0722     11.2839
C     -4.7324      5.9813     16.3812
C     -1.1402      6.7645      5.0648
H      3.6880      8.4440      8.5387
H     -9.4137     -1.6360     15.5425
H      3.9478     19.0938      2.6964
H      3.7971     17.2825     10.9766
C     -3.2557     24.3462      7.2704
C      6.8315     17.8947      9.1821
C      3.1202      7.7967      4.9768
C     -3.5025     27.4389      0.9303
C      5.6379     17.3706     12.5868
C     -8.1527     -3.3232     14.8800
H     -3.9786     21.1763      4.9673
H     -3.7933     21.2291      2.7157
H      3.6180     13.6337     10.7259
H      6.8734     10.1143      9.4313
H      5.6933     14.1472      5.6935
C     -0.1611     16.2570      8.2186
H     -4.3056     -3.1556     14.9314
C      0.4009     21.4277     -0.7346
C      2.1021     15.1835      8.1297
H     -2.3227     19.3611     -2.1475
H     -2.4989     22.6503     -1.3915
C     -0.3242      6.0475      1.4013
H      5.7864     20.2552     12.1155
H     -1.6540      2.0165      4.3382
H      8.3969      7.2071      7.1605
C     -3.0312      7.3121     12.9392
O      2.6901     23.1718      0.6897
C      7.2972      8.5579      7.9276
C      3.9128      8.4922      7.5478
C      3.4603     14.1001      9.7051
C     -9.5530      0.5342     17.8070
H     -5.0025     -2.1455     14.3625
H      7.2605     13.5493      6.7862
H     -2.1312      5.3815      6.4337
C     -8.7214      3.4681     16.4544
C     -2.0594     21.2619      0.6784
C     -1.6692     19.7238     -1.2841
H      9.0842     14.7967      8.8102
C      5.4194     15.7973      5.5322
H      1.9210     10.8462      8.7076
C      2.2230     11.7117      8.2359
C      4.4646     11.1470      7.3306
C     -2.1047      5.0471      3.5752
C      3.6231      9.9540      6.8008
C    -10.0571      3.5327     15.9656
C      5.2759     19.6647      9.5745
H      1.7112     12.1667      7.4254
H      2.2020     20.4788      0.0651
H      0.6352     24.7303      0.9609
H     -3.7454      6.5944     17.9505
H      3.0937      3.1727      0.5666
O      5.6737     19.7807      6.4234
C      0.7599      8.0650      4.5182
H      4.6557     11.9424      6.5261
C     -2.8875     21.4753      3.2403
C     -2.0003     20.4580      2.8560
H      8.3399     10.5004      8.4673
H     -4.5062      2.9563     15.9924
C     -2.4479      8.6389      7.8318
H     -3.3207     27.9701      1.9772
H      1.8796     15.7185      4.5825
H     -1.8562     24.2545     -1.5469
H      5.5146     18.8231     11.6595
C     -9.8534      1.1184     15.2241
C     -0.1478     21.5249      2.0519
O      4.9192     17.9836     11.3329
O      7.8611     16.4485     10.9157
C    -12.7344      3.2218     14.5891
C     -0.0650      4.0601      3.9642
C      7.1129     10.6969      6.9236
H     -4.3526     23.2825     -1.4242
H      2.5189      9.9475      6.5286
H     -0.8547      9.2841      3.8263
O     -0.1140     10.2966      5.2755
C      6.0250     10.8934      8.0135
C      0.7868      6.9421      6.7332
C      1.7442     20.4616      1.0683
C      0.5553      7.7534      3.0795
H      7.9674     13.0240      8.5228
C    -10.7262      0.0206     17.3007
C      0.7583     15.4996      7.3594
C     -2.6288     23.6198      6.3218
C     -1.9018      3.0328      5.2331
C     -8.2532     -0.4570     17.8718
C      3.0057     16.7162     10.1478
C    -11.9513      2.1900     14.9754
C     -1.1785     20.5141      1.4889
C      3.7110     11.9356      8.3971
N    -11.6207     -0.6505     18.2149
C    -10.2165      0.8448     13.8220
O      5.1337     19.3470     14.1812
C     -3.5478      6.2982     13.7921
H      5.3993     22.8024      5.7231
C     -2.3569      4.1355      2.5268
C     -2.1882      8.3300      9.3137
H      8.3864     16.7057      8.1113
H      2.0373     13.5686      6.6104
H      7.7794      8.8763      5.6452
C     -2.0587     22.9291      0.3003
H      4.9485     20.4758     10.2302
H      0.7663     19.8914      8.9093
H     -0.5521     22.6222      2.0047
H      1.8116     21.7426     -2.3966
H    -11.1996      0.4610     13.5747
H      0.1332     16.7574      9.2108
C      2.0861     20.4001      2.4993
H    -10.5127      1.5589     13.1209
C      1.7037     21.6948     -1.3544
C     -6.7501     -2.9966     12.6834
H      8.4369     18.6293     11.2710
C     -2.3256     23.6493     -0.9199
H    -12.4232     -0.9887     17.6352
C      4.2472     21.4685      4.3601
C     -5.4010      7.2821     15.7843
C     -4.7719     -3.0219     14.0924
C     -7.0913     -4.2382     14.8077
C      4.4317     19.2774      6.4145
C      1.9705      4.8466      2.6363
C      6.0773     18.5884     13.3314
C      5.3315     20.4457      3.9910
C     -5.0362      6.8531     14.3397
H      2.4961     22.4054     -0.9831
C      4.3807     18.2429      7.7030
O      0.4995     23.9015      0.6724
C      2.0608      5.1626      0.9582
C      6.2327     19.9732      5.0266
H     -0.2511     14.7045      5.7061
H     -2.9480     27.3861     -0.0379
H     -3.4216      3.7319      2.2574
C      7.3422     18.3845     14.2644
H     -0.4648      3.0756      3.2910
O      7.3754     20.3205      5.1157
H     -5.2622      8.5471     10.5836
H     -2.9786     21.2617      1.0097
H      1.5112      3.2970     -0.5153
C     -0.5186     20.6631     -1.6659
H      6.2242     17.5894      7.2261
C      2.9251     19.4435      3.0209
C     -1.3450      4.3060      4.7315
C      0.3230      6.8120      5.3197
H      5.7616      8.8632      9.5267
H      2.4775     14.8117      5.5755
C      1.4776     18.6755      4.8594
H    -12.0299     -0.4480     15.6111
H     -2.1838      7.1547      9.3648
C      7.7127      7.1385      7.9059
C      4.2368     13.3417      8.2456
C      6.0621     20.6560      2.7572
C     -3.4291     23.2198      5.0927
C      0.0642      6.2103      2.8293
C     -1.5207      6.3269      3.7296
H     -2.6730     24.7390      8.1438
H      3.2109      4.4614     -0.7030
H     -8.3982     -2.9596     13.9498
H      4.9576     16.6302     13.0039
H     -2.9050      3.1620      4.7005
C      1.9408     14.5666      9.4254
H     -1.8635     24.1981      5.9803
C      0.8089      5.1517      3.5063
C     -7.4535      3.7608     15.7417
H      1.0826     17.9051      7.7034
H      5.1158      8.5972      7.4874
C      7.7416     16.6102      9.7020
H     -2.2295     24.4591      1.1788
H      6.8549     11.1325      5.9438
C      1.8617     19.5977      8.6652
C     -1.3281      5.4117      5.8600
C    -10.9830      0.0165     15.9568
C      1.7503     17.4365      5.7451
C      2.0774     19.5607      7.1760
C      2.4934      3.9941      0.0494
H     -1.0521      5.2953      1.3692
H     -9.1401      0.3305     15.6828
H     -4.1164      8.7082      9.1666
H     -9.5678      0.2937     13.0963
H      6.8358      6.5269      7.7724
H      7.4602     15.3249      7.8523
H     -2.8354     23.4960      4.1801
C     -5.2018     25.7712      0.1996
H      6.0504     14.0892      3.9650
C     -0.4600      9.0412      4.7240
C     -3.3888      8.5603      9.9397
H     -4.3520     -3.5479     13.3772
C      8.1809     11.2130      7.6867
H     -4.4571     23.3382      5.5747
C     -0.3184      7.5331      7.3368
C      1.1493     16.2605      5.2149
O     -3.9844      5.7397     17.3309
C     -1.6753     21.0929      5.5957
C      6.5426     13.8813      7.3015
C      5.3507     14.6970      6.4862
C      2.8903     14.1130      6.1526
H      4.6401     15.9408     10.1771
H      8.2212     11.6134      9.7882
H     -0.0999     10.0359      6.1892
H     -0.0644      7.7820      8.4267
C      1.9713     17.9724      7.1092
H    -12.5535      4.2446     14.6858
C      3.8718     18.5172      5.2441
C      3.9126     15.6441      9.3980
H     -5.8644     25.1072     -0.2575
H      1.0069      6.5337     -0.4679
C     -4.2430      8.2715     10.9829
H      1.9687     16.2717     10.2702
H      7.5511     18.2975      8.4520
H     -0.9889     19.1613     -0.7103
C      4.1845     15.8325      4.9180
C      4.3947     22.3775      5.6601
C      6.2300     12.1445      9.1733
C      7.4215      9.3575      6.7314
C      5.7066     17.5085      8.2383
C      5.7292     13.3085      8.4428
H     -6.6358     -2.1308     13.1971
H     -4.1375      5.3338     13.5194
C      1.4047     22.9980      0.9750
H      2.5734     17.6618      9.3807
H     -2.4820     22.4032      2.8409
