290

C     19.9348      8.7047     13.6492
N     -2.2737     10.8403      1.0355
C      3.7533      1.5212      7.1201
C      2.1798      2.5114      2.4394
H    -11.3367     14.5147     10.5268
C      7.5613      5.0475      2.3669
H     -3.0098      7.2572      2.8813
C      7.2689      3.8084      3.0302
C      3.6243      4.1460      5.5519
C     18.7712     10.5564     11.7757
C     16.0539      7.3555     19.6506
C      5.9032      2.0857      3.9810
C     -7.0722      9.3889      8.9027
C     13.7601      8.7205     13.7170
C     -3.3706     11.8806     -0.4874
C     -4.3035     13.5010      0.8664
N      0.3865      2.5296      6.0300
C      0.6975      6.0358      0.7923
O     -1.2552      1.9708      1.2241
C      3.3209      4.2692      6.9640
H     13.5283      6.8572     11.2710
H     -5.1839     13.7653      1.4761
C     15.5952      6.5733     17.3858
C     17.2517     10.6905     15.9111
H     -1.9878      3.0311      6.2773
H      5.1025      5.4382      1.8854
C     16.9468      9.3378     15.9297
H      4.6498      6.6301      8.8501
H     19.2105     11.6764     11.6566
H     -9.9404     18.0486      9.7274
H     -0.2996      4.9880      6.1760
H     -6.8960     13.9782      9.5803
C      3.1530      2.9734      7.8475
H     -3.5236     10.6071     -2.3469
H      6.8723      1.8613      4.3420
O     14.5003     10.7423     15.0961
C     -5.1676     12.1717      8.9076
C     -3.1900     10.5734     -1.4078
C      6.1031      6.1306      9.9910
H    -11.3518     12.5799      8.3341
H      4.0086      5.4956      8.5935
C      6.1609      3.0632      2.9339
H      5.6147      3.6769      7.9050
H     18.3503     10.2621     10.7326
H     -8.6173     11.5399      9.4001
H      2.3362      7.5371      9.3584
C     17.2890     11.0154     17.2755
C     -2.7914      8.7478      4.9630
O      2.1485      8.7125      4.7494
C     -1.4827      8.2822      7.1087
C      8.8440      7.9114     12.1830
C     20.8184      7.4237     13.1093
C      6.6568      6.6691     -0.7023
H      4.5888      3.6119      1.4894
H     17.3173      9.4136     14.1138
H      1.7973     -2.3019      4.0476
H     -6.1855      6.7659      9.0574
C      7.7040      2.4501      9.0778
H      0.8429      1.2296      2.4134
C      7.1380      6.4963     10.8448
C      8.4160      6.0992      3.0070
H      8.8251      7.4974      1.8622
C     -1.0805      6.7770      4.9758
H     15.9479      9.1031     20.7366
H     18.3048     10.6305     16.0654
H     16.8287      6.4156     15.6629
H      2.6137      5.8495      0.9077
C     -3.2314     11.1219      7.8704
C      6.0885      4.7224      9.4958
C     15.9878      7.8217     18.1734
C     -3.5971     14.5712      0.8363
C      5.3632      4.2823     -0.4502
C     17.3953      8.5269     14.6971
H     -3.5811      8.0405      4.7569
H      8.3013      8.1420      3.6616
H     -9.6802     14.0017     10.5801
H     -6.4729      8.9684      9.6202
H     18.7370     11.8105     18.1287
C     -0.3784      3.5955      8.0766
H     21.1347     10.7222     13.6859
C     13.6221      8.5098     12.2072
C      1.7012      2.4496      8.4299
H     10.8438      7.2835     10.6883
H     -1.9363      8.5990     -1.7972
C     -0.8236      6.4099      1.5050
H      5.7398      7.3786     -0.5635
H     -2.4640      2.3635      4.9734
H      8.0391      6.9579      5.7886
C      9.9776      7.2386     12.5470
O     15.6694      9.8212     13.5830
C     -6.2794      8.5311      7.8750
C     16.8911      8.4813     20.2434
C     -9.4703     14.5794      9.7042
C      2.8131      0.6900      5.0376
H     22.2096      9.5024     14.5223
H     -1.5314     11.6297      1.1782
H     -5.9032     13.8705      7.0161
H     -1.9725      5.6966      6.6384
H      4.0681      6.3869     10.3785
C      3.9299      3.4544      3.4357
C     -2.6777      8.1978      0.9083
C     11.4266      6.9814     11.5425
H      8.9370      2.6952      9.1943
C      5.2312      2.2713      5.2602
H    -10.2929     11.5908     10.0592
H     18.2949     12.4844     16.5975
C    -10.4918     11.7299      8.7317
C     -8.0120     11.1332      7.3896
C     -1.7639      5.1062      3.4955
C     16.9661      9.8194     19.6324
C      2.7089      3.6739      2.9781
C      4.9604      6.9132      9.9246
H    -11.1037     10.8628      8.3987
H     15.3007      7.4861     13.3149
H      9.0909      6.8082      4.5340
H     -2.5778     12.4906     -0.3649
H      1.8079      3.9779     -0.8994
O      5.4199      6.8660      6.3862
C      0.7198      8.1898      4.4410
H     -7.8261     11.7609      6.4054
C     -2.6349      8.9580      3.4840
C     -2.1447      7.7072      2.8366
H     -4.7186     10.2950      9.4182
H      7.8741      3.3101      3.8839
C     -2.6633      8.1419      7.7096
H     -3.1278     15.3374      1.5347
H      1.6481      3.3470      4.3493
H      4.0548      5.5966     -0.6408
C      3.0633      1.3562      2.8131
C     -0.1552      8.7043      1.8544
O      4.1168      4.7576     -0.3166
O      7.9500      4.0747     10.7206
C     -0.1616      2.6678      1.5367
C      0.0523      4.1446      4.1876
C     -5.7330     10.7082      7.4399
H     -4.4091     10.2766     -1.4554
H     16.0493     10.5026     19.3765
H     -0.7672      9.6777      4.1815
H     13.0101      8.3816     10.3752
O      0.5018      9.9942      5.8429
C     -6.8635     10.8611      8.1806
C      0.6637      7.2233      6.9216
C     14.3953      7.3962     13.9422
C      0.4984      7.6253      3.0254
H     -5.1994     12.6887      7.9004
C      2.1365     -0.3335      4.1694
C      0.6469      2.9255      7.4861
C     -2.1801     11.0308      6.6606
C     -2.2123      3.3829      5.2530
C     17.8922     12.3024     17.6160
C     -9.5887     17.0183     10.1106
C      1.0072      2.1667      1.8421
C     -1.4641      7.7319      1.6804
C     -9.1002     12.1469      8.5292
N      1.7105     -1.4362      4.7458
C      3.5332      1.2068      1.3081
O      5.1912      5.9407      1.1077
C      9.6328      5.7495      0.4023
H     -6.5299      9.3794      6.0284
C     -2.4709      4.4796      2.5606
C     -3.1370      7.5579      9.0256
H      7.8930      1.9149      8.1043
H      1.8324     -0.2506      6.6964
H     -4.6760      9.6561      6.6188
C     -2.2720      9.5770      0.4299
H      4.4970      7.9186      9.9720
H      0.7727      6.4503      9.1077
H     -0.0530      9.5150      2.6539
H     15.0912      8.9381     10.5169
H     13.4980     10.7543     15.3709
H      3.7693      2.1099      1.2161
H     -0.9839      2.1959      0.2056
H     -0.7008      3.6936      9.0726
C     14.7736      7.3011     15.3320
H      4.1883      0.7581      0.6090
C     14.6080      9.0506     11.5232
C     19.3938      9.7571     12.7147
H      7.8765      5.7237     10.7185
C     -2.1590      9.6048     -1.0452
H      2.1549     -1.9742      5.6673
C      4.5527      8.7714      4.3075
C      8.2922      7.3829      2.8012
C     21.0832      9.7943     14.4525
C     18.8837      8.3284     14.7106
C      4.1871      6.1703      6.5729
C      2.0384      5.0097      2.6734
C      6.2260      5.5197      0.2612
C      5.7751      7.8801      4.1348
C      8.3891      6.0983      0.5409
H     15.3460      9.8166     11.9621
C      4.3243      5.1881      7.7369
C      1.8659      5.2984      1.2034
H     -3.4725      8.8112      7.1617
C      6.0970      7.1509      5.2023
H     -0.1966      1.8908      5.5042
H     -3.5957     14.9739     -0.2621
H     -3.5870      5.2127      2.3878
C      7.2437      5.4879      1.1435
H     -0.4854      3.3312      3.8380
O      7.5005      7.2059      5.1937
H      7.0782      8.5358     10.4494
H     20.2237     10.0666     15.0425
H      5.0003      5.7374      4.7286
C     12.8356      7.7478     11.2560
C     15.6514      6.3631     15.9131
C     -1.3238      4.6625      4.7272
C      0.4222      6.9316      5.2630
H     -7.8740      8.9302      9.3768
H      2.8978      1.9305      5.1757
C      1.3213      5.9401      4.7800
H      2.2085     -0.4504      1.9122
H     16.5769     11.3764     15.4361
H     -3.3055      6.2897      9.1668
C     -6.1119      7.3252      7.8325
C     -8.8434     13.6682      8.4936
C      6.6018      7.7557      2.8042
C     -2.7656     10.2607      5.3827
C     -0.1262      6.1822      2.8276
C     -1.3924      6.5545      3.6549
H     -2.9316     11.9852      8.6201
H      0.7611      3.7892      0.1615
H     17.0243      7.6226     15.0585
H      5.3328      3.4684      0.2574
H     -3.2340      4.0344      5.7300
C    -10.8988     14.5461      9.5042
H     -1.1462     11.4420      6.7547
C      0.7803      5.2418      3.4962
C      4.8320      3.4728      2.4420
H      1.5641      4.5266      7.7940
H     17.4704      7.8605     20.7643
C      7.1873      3.7749      9.7819
H     -2.9153     10.9443      1.9861
H     -5.3099     11.5532      6.7436
C      1.8291      6.6749      8.9262
C     -1.1447      5.5384      5.8696
C      2.2296      0.0402      2.8452
C      1.3055      4.7678      5.8863
C      1.9593      6.5347      7.4129
C      1.8103      4.0528      0.2828
H     -1.2581      5.5557      1.0910
H      4.1260      1.4204      3.2845
H     -3.0151      9.3318     10.0884
H      2.7570      1.1603      0.8104
H     -5.3567      6.6178      7.6546
H      7.5657      1.6017      9.7650
H     -1.9903     10.7630      4.8150
C     -4.5657     12.4796      0.1199
H      5.6554      1.1256      3.4954
C     -0.3127      9.1225      4.8773
C     -3.6894      8.1290      9.9545
H      5.9894      4.3605     -1.4433
H     -3.6438      9.1895      3.2719
C     -4.6590     10.8406      8.5354
H     -2.0631      3.5173      2.5046
H     -3.7846     11.0494      5.1055
C     -0.3104      7.7379      7.6529
C      1.0628      3.5163      5.1284
O      8.9654      5.8819      4.3027
C     -1.4548      8.3069      5.4786
C     -6.8121     14.1880      7.3302
C      5.0351      1.6936      6.4328
C      2.6293      0.6345      6.2909
H     -6.7278     15.1730      8.0075
H     -8.1163     16.1706      9.2625
H     -4.6708     12.7015      9.6772
H      0.2427      9.5531      6.7129
H     17.5707     13.0528     18.3380
H     -0.3524      7.9033      8.8088
C      2.0877      5.0992      7.0444
H     -0.5780      3.6552      1.1545
C      4.0061      5.5791      5.0210
C     -9.0640     15.9478      9.0833
H     -5.7326     12.1276     -0.1821
H      0.4047      5.8672     -0.1436
C      8.0132      7.7951     10.7219
H    -10.5271     16.4205     10.4600
H     11.3237      5.7906     11.4772
C      4.0385      2.9571      4.8425
C     17.5478      9.8972     18.1745
C     -6.6777     12.1195      9.0896
C     -5.6033      9.3224      6.7695
C      5.7723      4.6171      8.0779
C     -7.3102     13.5130      8.6225
H     -1.4061      3.7476      7.7855
H      8.7911      8.9944     12.3517
H     -7.1516     11.9022     10.0186
H     -2.7506      4.9931      1.3945
C     14.6658      9.7111     14.2232
H     -8.8055     17.1536     10.8975
H     -2.0476      9.7777      3.3937
