280

C      6.6796     -3.9792     13.5359
N     11.5360     10.8175      0.7425
C      3.8728      1.5459      7.3060
C      2.2883      2.6162     15.4638
H      1.6647      0.9219     10.2709
C      7.4500      4.9147     15.1475
C      7.7812      3.5491     15.6803
C      3.3341      4.2434      5.7023
C      6.2421     -2.8008     11.2545
C      3.5559      7.1592      6.6229
C      6.3986      1.8260      4.4166
C      6.3643      9.3951      8.6690
C      0.8692      8.7610      0.7276
C      9.2453     12.3941     -0.2632
C      8.2610     14.0942      1.0643
N      0.3148      2.3880      6.0827
H      5.9398     -3.7661     11.1787
C     13.7097      6.4492      0.7355
O     -1.4678      3.0424     14.1198
C      3.3307      3.9946      7.2631
H     -0.2313      7.3817     -2.3991
H      7.7653      3.2359     14.5989
C      2.8432      6.2272      4.5940
C      3.7945     -2.2467     16.2363
H      9.6959      3.4455      5.4980
H      4.5779      6.7605     13.5014
C      3.7661     -3.6401     15.9918
H      5.4808      8.0025      9.9660
H      6.5837     -1.9621     10.6515
H      6.2255      3.2515      5.6793
H      3.7134      5.7070      8.6136
H     12.7026      5.1667      6.1723
C      3.4022      2.7760      8.0645
H      9.2272     11.9237     -2.0017
H      7.2453      1.4887      4.9056
C      7.6584     12.4192      8.7373
C      9.2159     11.3573     -1.2153
C      6.7813      5.8723      9.7334
H      1.6225      5.4355      9.5366
C      6.5552      2.5701     16.1460
H      5.6270      3.4789      8.3427
H      4.2073     11.6751      9.5463
H      3.0279      6.4742      9.2350
C      4.0148     -1.9533     17.6285
C     10.1300      8.3916      5.2177
O      1.9127      8.6299      5.2607
C     11.5398      8.0155      7.1097
C      8.6694      7.9666     12.1951
C      7.3733     -5.2637     13.0140
C      6.8029      6.6730     11.9668
H      5.6840      3.6341     14.5762
H      6.5133      3.5127     12.3698
H      4.8315     -3.0614     14.4108
H      1.5527     -1.0231     18.9670
H      7.7561      7.1179      8.8498
C      8.5125      2.8407      8.8193
C      7.3008      5.6892     11.0151
C      8.1587      5.8231     16.0616
H      8.2401      7.9868     15.2713
H      7.1866     14.4081      1.1936
C     12.0123      6.8784      5.1949
H      3.5729      7.7383      8.4812
H      3.7887     -1.5312     15.5410
H      4.0622      6.6324      2.5903
H      3.8362      4.3396     10.4742
H     15.8353      5.8627      1.1696
C      9.6595     11.5933      7.1442
C      6.9577      4.8835      8.6436
C      2.9806      7.6198      5.3735
C      9.3847     14.6722      1.1149
C      5.6124      4.1504     12.4235
C      4.3752     -4.0145     14.6617
H      9.0452      8.0512      5.7248
H      3.5874      0.6757     10.5898
H      6.7888      9.5759      9.8267
H      5.4153      0.8871      5.8660
C     -0.2027      3.6964      8.0261
H      8.5950     -3.0623     15.2871
C      0.7169      8.4788     -0.6599
C      1.8839      2.2510      8.2600
H     -1.7503      6.4861     -1.9079
H      9.6169     10.0724     -2.2367
C     12.4793      6.4287      1.5081
H      6.2548      7.2419     11.1358
H     11.0480      2.9027      6.1620
H      8.6984      7.6893      7.3016
C      9.9162      7.5681     12.7651
O      3.0283     10.3805      0.6365
C      7.2905      8.9115      7.7219
C      4.1812      8.0793      7.6124
C      3.3468      1.0482      9.6231
C      3.3511      0.4930     17.9296
H      7.4471     -2.1900     14.5488
H     10.4764      5.3619      6.4666
H      5.3757      6.6522      8.6850
C      4.1742      3.4977     16.3819
C     10.6295      8.4783      0.8532
C     -1.2978      6.8360     -0.9158
H      8.6208      2.3393      9.8475
C      5.4424      2.5021      5.3734
H      1.8290     10.9158      9.2511
H      5.2083     -0.4675     17.4964
C      2.1815     11.9551      8.7748
C      4.3940     10.8646      7.7701
C     11.1305      5.2140      3.5992
C      3.8228      9.6128      6.8653
C      2.9173      3.7756     15.6458
C      5.4709      6.7867      9.9997
H      1.5187     12.3479      8.0124
H      2.6221      7.4956      0.5282
H      0.0952     10.8295      1.0827
H      9.5914      6.0812     16.8518
H     10.0222     13.0092      0.0995
H     16.1834      3.8375      0.2918
O      5.7296      6.6462      6.5398
C      0.8326      7.9394      4.6639
H      4.7318     -0.4685     19.3237
C     10.0056      8.4502      3.7795
C     10.7071      7.3545      2.9588
H      8.6192      3.5704     16.5607
C     10.5823      8.6071      8.1040
H      9.6128     15.6517      1.0193
H     11.1869     10.8063     -1.9326
H      5.0659      4.0431     10.6855
C      2.8273      1.1960     15.2440
C      0.1565      8.7397      2.0869
O      4.9040      4.7918     11.3217
O      7.0989      3.3993     10.5894
C     -0.1664      3.1862     14.4678
C     12.7950      4.0401      4.2840
C      6.8062     10.8888      6.7095
H      7.8505     11.3904     -1.1441
H      2.8744     10.0435      6.6731
H     -0.9425      9.2483      4.0584
H     -1.2315      8.6596     -1.6057
O      0.0725     10.1724      5.5689
C      5.9073     10.8726      7.9732
C     13.7172      6.7690      6.8483
C      1.7007      7.5148      1.1707
H      2.6539      8.6971      2.5431
C      0.7284      7.7961      3.2972
H      8.1636     13.5691      8.4846
C      2.0695      0.0193     17.2891
C      0.5721      2.7841      7.4062
C     10.3875     10.6603      6.4548
C     10.6557      3.3237      5.2207
C      4.3919     -0.6299     18.1984
C      3.1782      3.5708     10.2948
C      0.8130      2.5932     15.1735
C     11.7122      7.7991      1.9825
C      3.5418     11.8283      8.6763
N      1.1498     -0.6419     18.1405
C      2.7201      0.5511     13.8578
O      4.6031      5.8692     13.7462
C      9.3493      6.5332     13.8485
H      5.6566      9.5922      5.5721
C     10.7773      4.4191      2.5628
C     10.4844      8.3195      9.4133
H      9.2760      3.4450      8.5244
H      7.9315      9.0350      5.7555
C     10.7346      9.9192      0.1877
H      4.5851      6.5563     10.6778
H      1.6311      7.5048      8.9852
H      0.0280      9.8042      2.3804
H      1.7450      8.3995     -2.3314
H      2.5876     -0.5049     13.4652
H     -0.0954      3.7408      8.9987
C      2.1867      7.5429      2.5750
H      1.7897      1.0199     13.5042
C      1.9417      8.4297     -1.2578
C      6.3307     -2.8352     12.6757
H      7.7889      4.7979     11.5271
C     10.3725     10.4513     -1.2581
H      0.2373     -0.9199     17.8243
C      4.2092      8.2544      4.4410
C      7.4891      7.1263     15.6038
C      7.7791     -3.1169     14.3365
C      5.8885     -4.3131     14.7716
C      4.5370      5.9688      6.5717
C     14.9515      4.9783      2.7817
C      5.9273      5.5830     13.1302
C      5.3604      7.3192      4.0527
C      7.7731      6.7711     14.0191
H      2.9520      8.1675     -0.7712
C      4.3793      4.9439      7.7520
O      1.0781     11.1593      0.9200
C     14.9204      5.2185      1.1887
H     10.3689      9.4984      7.5839
C      6.3075      7.0172      5.1750
H     -0.7176      2.8725      6.2603
H     10.1071     14.1436      0.5441
H      9.9918      5.0184      1.7680
C      6.9796      5.6515     14.1041
H     12.6904      3.6584      3.3475
O      7.5594      7.2645      5.3825
H      7.2911      8.8495     11.0536
H      9.8637      8.4589      1.5441
H     14.3932      3.4990      0.6129
H      5.0196      5.0558      4.5612
C     -0.4426      7.9263     -1.4537
H      5.9327      3.8780      6.8592
C      2.9260      6.5199      3.1755
C     11.4531      4.4977      4.9876
C     13.4686      6.7870      5.4861
H      5.7869      8.5277      8.6350
H      2.5738      2.0184      6.0054
C      1.4656      5.6448      4.9455
H      0.8695      0.2324     15.4724
H     11.0496      7.3975      9.5730
C      7.8156      7.6752      7.6984
C      4.3525      0.6752      8.4238
C      6.1706      7.7576      2.8880
C      9.9141      9.8041      5.1945
C      0.0054      6.3708      3.0013
C     11.5748      6.5811      3.7370
H     10.3007     12.5301      7.2076
H     14.7206      4.6027     -0.9831
H      5.0189      3.6659     13.3371
C      1.8929      1.3167      9.2852
H     11.2463     11.2192      6.0560
C     13.6215      5.1934      3.6024
C      5.3316      3.2677     15.5809
H      1.4053      4.4646      7.8554
H      5.2345      8.1757      7.4126
C      7.5803      3.6554      9.4176
H     11.1758     11.7259      0.6120
H      7.1456     11.7775      6.1150
C      1.9505      6.3420      8.9988
C     11.6619      5.5772      5.9991
C      1.8115      0.1753     16.0099
C      1.7299      4.4276      5.7750
C      1.9246      6.1671      7.4757
C     15.0676      4.1722      0.1809
H     11.7087      5.6697      1.2507
H      3.6860      0.5072     15.6800
H      8.8543      9.0003      8.9629
H      7.0223      6.8478      7.4770
H      7.1957      1.6822      7.5112
H     10.8644     10.1868      4.4961
C      8.1972     12.8993      0.3149
C     -0.4293      8.9138      5.0526
C      9.2971      8.7307      9.9413
H      8.2318     -3.2467     13.4291
C      8.6709     11.3712      8.0329
H     10.4672      3.5133      2.8522
H      8.8427     10.2581      4.7551
C     12.7832      7.5420      7.6206
C      0.9206      3.3872      5.1631
O      8.7853      5.6671     17.2653
C     -1.3857      8.1788      5.7922
C      6.3683      1.2006      7.1363
C      5.1768      1.6821      6.4873
C      3.0469      1.0115      6.4245
H      5.2115      2.6436      9.6887
H      7.9733     12.5350      9.9057
H     -0.7189     10.5119      5.4638
H      3.4449      1.8486     17.6041
H     12.6670      7.2663      8.6241
C      2.0327      4.6984      7.1973
H     -0.1004      4.2334     14.0126
C      4.1705      5.3606      5.2768
C      3.9435      2.5053      9.5745
H      7.2840     12.1488      0.5736
H     13.5446      6.5499     -0.5151
C      8.2778      8.1683     10.8081
H      2.7057      2.9204     11.3270
H      7.8880      5.1080      7.9966
H     -1.1748      6.1643     -0.0969
C      4.2224      2.9541      4.7270
C      4.4349      9.5472      5.4399
C      6.2720     12.0849      8.5790
C      7.6867      9.6690      6.7031
C      5.7343      4.3654      7.7941
C      5.8219      0.4313      8.3110
H     -0.6973      4.5473      7.8348
H      7.4117     -2.2332     12.6927
H      9.1989      5.5284     13.2933
C      1.8861     10.2145      0.7475
H      2.3197      3.9969      9.6130
H     10.1195      9.3376      3.0673
