   64
 8.34656345280000e+00  8.34656345280000e+00  8.34656345280000e+00
 C  1.99590921578748e+00  4.70541634938828e+00  6.11981398479714e+00     2.34825463323149e-01  1.18387340749937e-01 -6.24759707426761e-02 
 C  6.61910651241215e+00  3.95445606049009e+00  1.99799345579347e+00    -4.80321563772812e-01  2.46198001771363e-01 -1.59927314651475e-01 
 C  7.91147210964615e+00  1.19538798112572e+00  1.40233615311538e+00     1.13329026261652e-01 -3.67202740077159e-01 -6.63570189514239e-01 
 C  1.57875355700593e+00  7.79174639020142e+00  4.12299114811947e+00    -1.54363226131458e-01 -8.83256849509497e-01  3.15248776752844e-01 
 C  3.47573949512023e+00  4.60224450404426e+00  3.80858276579270e-01    -5.21844643346067e-01 -5.15724303458759e-01 -9.70970074434457e-02 
 C  3.84761424166367e+00  2.65432377272887e+00  1.95450418140752e+00    -5.86699354833502e-01 -3.30574533099050e-01 -3.96267562747552e-01 
 C  3.75858308545901e+00  7.55142681996121e+00  6.29966358504836e-01     6.50928845134562e-01  7.00820916613473e-01  2.63563730020520e-01 
 C  4.26065304575708e+00  3.77591888483798e+00  7.23435541461061e+00    -6.85705653371034e-01 -2.09191481591358e-02  5.08485923774024e-01 
 C  8.15839412764495e+00  1.36921054422852e+00  6.46053796329362e+00     1.21204755127893e-01 -1.72821428369860e-01  3.37681612089123e-01 
 C  8.36357788529553e+00  4.64842575224780e+00  5.60995129329053e+00     3.28313574365625e-01  5.08679641928196e-01 -9.37952115113769e-01 
 C  7.26083403515922e+00  1.70762644628695e+00  2.52632225284650e+00     2.16033668045519e-01 -1.90002868729539e-01  1.69050418559869e-01 
 C  1.81392191548365e+00  9.57405905174319e-01  8.43381451462969e+00    -5.20582808298004e-01  6.24907085264471e-01 -4.81383894777671e-02 
 C  7.22855154424057e-01  1.81555820038655e+00  4.40476573766147e-01     4.48762446738062e-01 -6.16288709570175e-01  6.46106238411546e-01 
 C  4.19532924632793e+00  1.43926492526864e+00  2.62654264603225e+00    -2.23408518354477e-01  1.39405120973686e-01 -1.14668819448761e-01 
 C  3.80187217693744e+00  1.41312223104195e+00  5.19479348733656e-02    -4.43410890828161e-01 -1.82737985982609e-01 -1.09860237475435e-01 
 C  4.07333884108668e+00  7.28971029615324e+00  4.69787525116237e+00    -4.82266819495557e-01  7.29704694713137e-01  4.64490990800738e-01 
 C  5.55200287637189e+00  4.18115835777644e+00  4.85006646912401e+00     2.41361694405781e-01  6.51070730857632e-01 -6.51757221845347e-01 
 C  5.91345109499086e+00  1.64931035042379e+00  4.53129496035241e+00     1.44142894859616e-01 -5.58723608586406e-01 -2.84139821339772e-01 
 C  6.52497791526919e+00  2.35019155406302e+00  8.06950683465618e+00    -1.93848289519559e-01 -4.02809537173779e-01  3.10196166633345e-01 
 C  3.33473056696528e+00  7.97731512254259e+00  1.81617670671528e+00     3.32912827736079e-01  2.91914277579521e-01 -3.09325474899375e-01 
 C  3.16066835750389e+00  3.36228310753344e+00  1.07641466198355e+00     1.33052189681373e+00  9.17358432705045e-01 -1.21643164531892e-01 
 C  5.34404997676692e+00  6.45262511691595e+00  6.08437112542602e+00    -4.71389056530687e-01  5.11771524807414e-01 -1.32806508410103e-02 
 C  4.70387114658784e+00  6.76066849581809e+00  3.05536241178010e-01    -1.69838598707225e-02 -7.19707115240451e-01 -2.32650004442819e-01 
 C  2.17326286797053e+00  4.74649841902530e+00  3.08188152263895e+00    -6.95736349898349e-01 -9.74743645070405e-01  4.61939444703458e-01 
 C  2.08885062096459e+00  5.49624301842325e+00  8.34842134987771e+00    -1.53468765324521e-01  2.53634405342295e-01  2.94133712010035e-01 
 C  8.54374732712093e+00  7.24617619926286e+00  5.67897607665984e+00     2.55916659797469e-01 -2.12454015364426e-01  9.37401761928696e-02 
 C  4.75173892802446e+00  5.25420174327665e+00  2.37853257646109e+00     3.97732319716376e-01  4.24261090438761e-02 -1.43912573521855e-01 
 C -1.28401577439873e-01  6.40017977443905e+00  1.50799945825689e+00     9.08523275509112e-04  3.04486841195358e-01  2.54108014691572e-01 
 C  7.27150997222599e+00  5.05563024934450e+00  6.41396213063797e+00     6.97738048623536e-01  7.87321580548973e-01  8.45878351793724e-01 
 C  7.07767405450029e-01  2.92364174140897e+00  3.86516809037271e+00     4.76204788853080e-01  8.42538292483274e-02  1.03026737230878e-01 
 C  2.98128892072306e+00  7.57627083787821e+00  5.49119453727111e+00     8.49755874995153e-01  3.24743228194197e-01 -4.02450700528522e-01 
 C  4.21325484856557e+00  3.99678292580459e+00  4.95340647266649e+00     3.53787908163625e-01  2.04900586162742e-01  5.97027013519297e-01 
 O  1.35533593779044e+00  4.93813622011640e+00  2.14260033501681e+00    -2.16780224989391e-01  3.59738425790437e-01 -2.09127721703937e-01 
 O  7.74829098849051e+00  4.78726999513790e+00  7.53382404938633e+00    -6.96331249358832e-01 -2.69945918654449e-01  2.47997765186405e-01 
 O  7.51764274651260e+00  3.83635873276669e+00  1.25983749955424e+00    -1.26409087763749e-01  2.79373324596256e-01 -2.46011740503645e-01 
 O  6.54700274121879e+00  3.97289401163149e+00  3.21054017841404e+00     1.52898837461179e-01  2.50120428376513e-01  2.69149203521889e-01 
 O  9.28864254695499e-01  1.76197800002728e+00  4.28722522181207e+00     1.28199539299293e-01  9.13813868484872e-02 -1.22374402641444e-01 
 O  5.47423084077227e+00  2.55459421020310e+00  3.25888501701001e-01     3.85194159128212e-01  8.04705776924597e-03  2.28357686819468e-01 
 O  1.68842273948403e+00  5.59387754808325e+00  7.06385373703383e+00     7.66392261710801e-01 -1.29520041670744e-01 -2.70880354397209e-01 
 O  4.62498598363615e+00  5.44669123285957e+00  2.43095653608996e-01     1.98217317495785e-01  1.81515467250206e-02  3.41354340544487e-01 
 O  1.69800189695939e+00  6.62977560818161e+00  3.73954953376960e+00     2.23789342816768e-01  4.07863600526762e-01  2.41914056967891e-01 
 O  7.31025908065405e+00  7.24469272074776e+00  5.87680144894424e+00     4.92162532664713e-01 -1.93486691236225e-01 -1.81474741611329e-01 
 O  2.16794787547167e+00  3.54984017265365e+00  3.56344138016085e+00     1.25957862986426e-01 -1.20543071640651e-01  3.93469795012894e-01 
 O  3.81708546884202e-01  8.08350399751150e+00  4.63097430988851e+00     1.17344422425933e-01  2.09248289713278e-01 -2.24365411165708e-01 
 O  6.85688983578930e+00  2.13176410654093e+00  5.01544867229895e+00     2.11907709119302e-01  3.85484514184939e-02  1.81555645492469e-01 
 O  5.57759900130858e+00  2.42205957802020e+00  6.41181171497945e+00    -5.43794532670298e-01 -6.77561782821565e-01  3.30116541080500e-01 
 O  7.40109900765967e+00  6.07181736766328e+00  8.47517237869126e-01    -7.37105430388613e-01 -1.53143781954002e-01 -7.82515812930825e-02 
 O  3.11570560017585e+00  7.47740312861088e+00  6.77535440521214e+00    -2.91619935919209e-01  4.89617344245929e-02 -2.30124935102376e-01 
 O  8.28000215843924e+00  8.20924562965144e+00  7.51134168647820e+00     3.32881560711821e-01  2.73940205526146e-01 -1.57063080278005e-01 
 O  8.07614834632645e+00  6.65956051688488e+00  2.77512385834395e+00    -1.36032421018760e-01 -6.42262951647364e-02  3.44543728267211e-02 
 O  2.49528161452387e-01  3.86133984380873e+00  4.79496360042371e+00    -8.83236968944502e-02 -7.36258776577226e-01 -9.58434375600099e-01 
 O  5.78315707625051e+00  5.86307713260683e+00  5.03220428030660e+00     9.90035896069739e-02 -5.03200720944819e-01 -5.97929710733902e-01 
 O  2.08037586696542e+00  7.81994083546316e+00  1.93820940314095e+00    -4.63311994816302e-01  2.48342822335909e-01  5.02270671825089e-01 
 O  1.99270969536765e+00  3.45997198437136e+00  6.33423275293982e+00    -3.15938464994381e-01 -9.23668231843431e-02  7.27615942990123e-01 
 O  1.26334942840988e+00  6.28763930740432e+00  6.87132633804240e-01     2.40905791724901e-01  3.20174292784212e-01  1.47866640788327e-01 
 O  3.77769128271494e+00  5.91659859657581e+00  2.70849280315940e+00     5.03507638505349e-02  8.75860375355505e-03  1.04744886648573e-01 
 O  5.91887806295593e+00  8.20576115420311e+00  4.49662165852721e+00    -4.02370148648349e-01  2.95206301708181e-01 -2.94845522235939e-01 
 O  1.08347900068970e+00  2.79576059002186e+00  1.09684231764773e+00     4.63473287129781e-01  2.43681867433632e-01 -3.60108827062532e-01 
 O  3.76574036969231e+00  2.89228992140226e+00  4.90455162385067e+00    -1.29763576865182e-01 -2.89634093085795e-01 -4.31419173222510e-01 
 O  7.40244143080899e+00  6.31008956679732e-02  1.15061836226885e+00    -6.66186352627001e-02 -4.79614099382945e-01  1.06752934957102e-01 
 O  5.78774559017459e+00  6.82900029156176e+00  7.14112274898073e+00    -5.57180783255997e-01 -5.71561188849665e-02  4.04829091123501e-01 
 O  2.57051227548463e+00  1.22200250342456e+00  6.11642161150070e+00    -3.46160452017826e-02 -7.09441284824334e-02  1.94154524053700e-01 
 O  6.20252370676531e+00  1.52526148116940e+00  3.16186468797721e+00    -2.42164865421645e-01  1.80742931452473e-01 -2.58376551731138e-01 
 O  3.68339218172520e+00  5.04808975341360e+00  5.74597847277413e+00    -1.14730339536298e-01 -4.16142675742127e-01 -5.23158443485366e-01 
