   64
 8.34656333923340e+00  8.34656345280000e+00  8.34656345280000e+00
 C  1.90871965428834e+00  4.57534756648549e+00  6.13337818907619e+00     2.38947523805732e-01 -5.22629295474968e-01 -7.59175493458292e-02 
 C  6.67702137383314e+00  3.96627258679994e+00  2.08418876638243e+00    -3.98998580436234e-01  1.96513730670080e-01 -2.30660705641229e-01 
 C  8.01159716529072e+00  1.07274591626390e+00  1.50493890685588e+00     1.02807455122034e-01 -2.13369408522224e-02 -2.74300353800374e-01 
 C  1.73645476542887e+00  7.75850401216285e+00  3.95271250791304e+00    -1.86843183520294e-01 -5.25311659327823e-01  3.87797958435153e-02 
 C  3.68979192924771e+00  4.48530685814874e+00 -8.57569067972840e-02    -1.56346211567789e-01 -9.85681835464021e-02 -1.07533013865580e+00 
 C  3.87212370882268e+00  2.88400094883424e+00  2.23497475751159e+00     3.44016635811242e-01  9.95667927267040e-02  5.06374360127566e-01 
 C  3.65463904595745e+00  7.30256301405041e+00  6.14595342931877e-01     3.37937510785574e-01  3.64102472589562e-01  5.58802446686831e-02 
 C  4.29072040279833e+00  3.97177469607453e+00  7.04509209465876e+00    -7.60064409490006e-01  5.60824549322980e-02  7.44662444912331e-01 
 C  8.12941408960949e+00  1.11706094030823e+00  6.92445501441598e+00     1.17080436617719e-01 -5.81177347559201e-01  9.02488877678466e-01 
 C  8.06028342797407e+00  4.74902854632635e+00  5.44000471203912e+00    -4.82451709726034e-01  7.68239226131264e-01 -1.11343313082094e+00 
 C  7.33852353172024e+00  1.75222266236608e+00  2.47946182729344e+00     2.16442945462109e-01 -5.16354059527736e-01  2.21971698816011e-01 
 C  2.10774343444386e+00  1.17907847572406e+00  8.42366332700256e+00     3.69006499618906e-01  6.85738659011193e-01 -4.88685382675969e-02 
 C  7.94110804960640e-01  1.80853749189954e+00  3.70219615762229e-01     7.46585129037786e-01 -4.30708290689552e-01  5.22976316394607e-01 
 C  3.62464129252349e+00  1.55907016703918e+00  2.65389957889709e+00    -1.83237404784338e-01 -2.16195314306344e-01  3.96899814369627e-01 
 C  3.51825673675514e+00  1.47962351120346e+00  1.56500370041210e-01    -1.54081458644728e+00  1.13562110628038e-01  2.25337441204060e-01 
 C  4.01537890064388e+00  7.18978515695322e+00  4.64120228193461e+00    -6.33537397413139e-01  6.01630588368741e-01  5.84730797780408e-01 
 C  5.48550872433168e+00  4.03396106390957e+00  5.10299659474376e+00     8.61574373293700e-01  2.40409120164796e-01 -3.87147897963671e-01 
 C  5.94398562787226e+00  1.39276146858897e+00  4.41142965953204e+00     3.94261727596688e-01 -1.40110246377876e+00 -7.98702850361711e-02 
 C  6.41940220929022e+00  2.24848500237178e+00  8.11509829869093e+00    -4.24488051070790e-01 -3.84700907315147e-01 -3.04118428872768e-03 
 C  3.42125340719716e+00  7.93294359219853e+00  1.80108522233713e+00    -1.25225478394233e+00  5.47773035255485e-01  2.50786905455153e-01 
 C  3.00383351165030e+00  2.69001044072706e+00  1.29931684238360e+00     1.81379461013171e-01 -4.90612467328340e-01 -8.94740279927490e-01 
 C  5.47960825406749e+00  6.31994112342849e+00  6.01816154990073e+00    -4.46738985465909e-02  2.23268954562102e-01  2.38204809357290e-02 
 C  4.87986445606116e+00  6.90402917660752e+00  5.57034812555605e-01     2.59371726158222e-01 -4.10683091324275e-01 -1.69993421225604e-01 
 C  2.10545203354553e+00  4.78673204509810e+00  2.75738239843455e+00    -1.23805950278732e+00 -5.11329464593738e-01 -2.53318702355828e-01 
 C  2.23073008173985e+00  5.19011418435138e+00  8.17516619100480e+00    -4.17243597445484e-02 -4.16230458640406e-02 -1.01662997014534e-01 
 C  8.47965830226306e+00  7.50107195594435e+00  5.58967081917599e+00     4.76683905326378e-01 -5.36254452137379e-01  4.20888298399315e-02 
 C  4.81277771151899e+00  5.09659681090237e+00  2.82271908250870e+00     3.78822347945566e-01 -1.66563225293464e-01  2.17191507172923e-01 
 C -1.43808225398461e-01  6.34606138887588e+00  1.74121046441016e+00    -1.29403252544194e+00 -1.88761308107836e-01 -8.84819763682750e-01 
 C  7.24812507776628e+00  5.21404604190455e+00  6.35247338421781e+00     4.63799143322595e-01  8.06258541119899e-01  3.64882870408582e-01 
 C  1.24694144554826e-01  2.92337542887191e+00  4.04204544531409e+00     2.08942445270038e-02 -4.04644851293418e-01  4.77478433652525e-02 
 C  3.09093749358026e+00  7.30737485906218e+00  5.69770767176509e+00     1.02271432452626e+00  2.29907776957386e-01 -8.16655935609781e-01 
 C  4.11069948531344e+00  3.96336350114921e+00  5.18946931337118e+00     2.05231463625449e-01 -2.55576249109191e-01  5.63983907646207e-01 
 O  1.22892590332986e+00  4.95067921899113e+00  2.00918104656524e+00    -1.90518078268266e-03  3.01390480791006e-01  3.23209189463771e-01 
 O  7.85830581004260e+00  5.07899253451027e+00  7.53863323586329e+00    -3.32973715262438e-01 -1.04702259978244e-02  7.66595083235993e-01 
 O  7.68390241723120e+00  3.93174067762581e+00  1.48732317129519e+00    -1.14767546277935e-01  4.19366262637345e-01 -1.37849661019933e-01 
 O  6.47415057626789e+00  3.90054930612671e+00  3.28419454127079e+00     6.05078096630108e-02  1.29028410349671e-01  3.78832439964217e-01 
 O  9.08245395955093e-01  1.99485896501697e+00  4.31384655265263e+00     1.23964548952910e-01 -1.86746958447829e-01 -2.55386841691495e-01 
 O  5.40054240647680e+00  2.31903607300185e+00  5.05131106064812e-01     1.99087980486649e-01 -1.77387073576037e-01  3.50424869334118e-01 
 O  1.67164036112959e+00  5.54389100472738e+00  6.87044145762651e+00     8.17926888299760e-01 -1.81135073935882e-01 -3.53243574863158e-01 
 O  4.60360220257417e+00  5.49152557232567e+00  1.04299681513787e-01     5.19726055590287e-01  5.36016795351087e-02  4.87983925484633e-01 
 O  1.75454006998944e+00  6.62187464905019e+00  3.64236879127305e+00     1.77304167991603e-01  4.19716973689544e-01  2.20068303419542e-01 
 O  7.40616504276680e+00  7.26750022245098e+00  6.11969427330571e+00     5.99289689371098e-01 -2.95784645909337e-01 -2.27708660465667e-01 
 O  2.09158678279033e+00  3.77935719653258e+00  3.47838121138509e+00     4.18313039310296e-01 -1.42867713035914e-01  4.98292907692584e-01 
 O  5.61831567785873e-01  8.32735627899331e+00  4.71930478324924e+00     2.45223902564466e-01  2.79959007323531e-01 -3.75519255515506e-01 
 O  6.77589503904597e+00  2.06045498020500e+00  4.94526846228400e+00    -4.77883405236218e-02  2.73957733560357e-01  2.77276773200577e-01 
 O  5.67745186161975e+00  2.41551979284889e+00  6.61194729649298e+00    -1.80531600812697e-01 -7.84144778354448e-01  5.67647845393132e-01 
 O  7.51758117824746e+00  6.08656202723462e+00  7.25723128294845e-01     3.81439387543160e-01  4.53285156709862e-01  1.19375041825660e+00 
 O  3.29299540388365e+00  7.44192505586090e+00  6.91086296328772e+00    -1.51799385318451e-01  1.06505497169723e-01  2.11011698154069e-01 
 O  8.23742047189600e+00  8.45611089728345e+00  7.45378716698277e+00     4.18742171981672e-01  9.59434098945591e-01  3.22158980611348e-02 
 O  8.01742246120569e+00  6.92022827290531e+00  2.89801389296177e+00    -4.30530157383580e-01  1.97890380889018e-01  9.66044471408638e-02 
 O  2.67898854441235e-01  3.85909010599943e+00  4.83489002214195e+00    -2.54178161104087e-01 -3.60629468342249e-01 -7.17110634228199e-01 
 O  5.95822972392280e+00  6.03771575699514e+00  4.96060064032171e+00     1.06442247800014e-01 -1.81885672054021e-01 -7.25435341484287e-01 
 O  1.92323781926558e+00  7.91882375089066e+00  1.76055958001754e+00     6.17860990483469e-01  2.82744765379059e-01  6.88031469827119e-02 
 O  2.10186553369988e+00  3.30649849710607e+00  6.11326630893075e+00    -7.01707858089642e-01  2.44885337596989e-01  8.52409530511173e-01 
 O  1.51702105856570e+00  5.92166872364298e+00  5.66121970988045e-01     7.17060706876075e-01  2.18764647377335e-01 -5.03784606386538e-01 
 O  3.92914811617939e+00  5.83722616298746e+00  2.45798254308368e+00     1.28885756145374e-02  1.05773495843605e-02 -2.02892681681280e-01 
 O  6.07755313208781e+00  8.41447066302430e+00  4.84290443259365e+00    -4.67733517580636e-01  9.67426433665834e-01 -3.43450945056507e-01 
 O  1.11549922370633e+00  2.80992094221200e+00  1.02679290944150e+00     4.09131178269242e-01  1.94714659906646e-01 -4.45429125566468e-01 
 O  3.74363206122237e+00  2.84445962562204e+00  4.85817843074239e+00     3.41481309609210e-02 -2.24158253273132e-01 -7.01233178515008e-01 
 O  7.16487336159244e+00  3.41055672589402e-01  1.01967522666421e+00    -4.18278569373999e-01 -5.16445966215654e-01 -1.05421513894702e-01 
 O  5.69533169760183e+00  6.80855963908147e+00  7.05137930380373e+00    -8.30998428902102e-01 -9.39392456958201e-02  2.00417336399887e-01 
 O  2.49859541812779e+00  1.12643196550232e+00  5.84238459220850e+00    -1.86267158080056e-02 -2.81366935021645e-01  4.43280949384108e-02 
 O  6.19966683517566e+00  1.42271767540981e+00  3.04612380714133e+00    -2.66978680706578e-01  4.58749595258596e-02 -4.51623696266395e-01 
 O  3.59696757913464e+00  5.12464281213043e+00  5.69593742425644e+00    -2.13886922843612e-01 -4.18173205927269e-02 -4.98901155407018e-01 
