64
8.3465634528 8.3465634528 8.3465634528
C 1.60418 5.16043 5.23550
C 6.87010 4.41384 2.60721
C 7.59783 0.46916 1.40283
C 1.26282 7.43093 4.38557
C 3.02435 3.22611 8.03515
C 4.02001 2.86282 2.71599
C 3.19378 7.03650 0.64473
C 4.95911 4.07821 0.16563
C 1.09604 1.21240 7.88992
C 0.35857 4.68654 5.79884
C 7.58121 2.01316 1.02070
C 2.65873 2.20900 0.91490
C 1.50096 1.56169 0.90073
C 3.87307 1.61765 3.35556
C 3.79371 1.55879 0.25070
C 3.11126 7.42074 5.34467
C 5.48380 4.12853 7.18621
C 6.41292 1.34128 4.51582
C 7.14215 2.72405 0.14802
C 3.51071 0.99514 2.08696
C 3.08871 4.21268 1.66718
C 4.81747 6.22526 5.25487
C 3.98136 6.20873 8.29440
C 1.61143 3.92827 2.38889
C 1.81764 4.52920 0.44882
C 0.28080 6.88576 5.20324
C 4.65382 5.84735 3.20629
C 7.83314 5.46622 0.91949
C 6.82748 4.89739 6.02153
C 1.82078 2.43114 4.47419
C 3.35722 7.60435 6.60276
C 4.92868 4.74847 3.62489
O 0.25383 4.05963 1.35720
O 1.01974 3.58774 6.88184
O 6.26091 4.14385 0.76997
O 7.31483 4.58225 3.57491
O 0.70499 2.06704 4.57105
O 5.38311 1.97213 1.51812
O 1.43752 6.05905 6.12029
O 5.22418 5.44625 0.51175
O 1.77365 5.33605 3.94762
O 8.12103 7.53345 6.05996
O 1.56722 2.70699 2.90677
O 0.35122 8.02375 3.73646
O 6.42666 2.69926 4.22738
O 5.25205 2.84484 6.61411
O 7.87850 5.48322 8.20347
O 1.33402 7.46002 8.10934
O 0.28933 0.13574 7.85069
O 7.95986 6.30636 1.84119
O 7.44873 3.81250 5.46483
O 6.30144 6.26239 5.27328
O 2.06769 7.66653 2.64977
O 2.44556 4.36364 5.73599
O 2.03702 5.94725 0.81271
O 4.14645 6.75350 2.70464
O 6.20248 0.22324 5.01403
O 0.75185 2.38362 0.28010
O 4.42562 3.58037 3.45283
O 6.67146 8.27116 0.96210
O 4.30885 7.40353 7.44498
O 3.10277 1.61262 5.81577
O 5.78983 1.38614 2.94685
O 4.36728 5.31781 4.80910
