   96
 8.60913085937500e+00  8.60913090000000e+00  8.60913090000000e+00
 O  1.69573601447971e+00  6.76527771041760e+00  6.71683758078144e+00     1.10020166089555e+00  4.10877909214581e-01 -1.68122605740807e-01 
 H  1.65941836820243e+00  6.96831663703970e+00  1.38241820727979e+00     1.39301492712160e+00 -6.00262656907657e-01  1.59300648860010e+00 
 H  1.89374443374864e+00  4.96774155082639e+00  6.61222749797919e+00     1.25058722193016e+00 -3.65864723901002e+00  1.59356882695191e+00 
 O  8.48736379138237e+00  8.26350682915714e+00  5.57559541788338e+00     1.09490584076311e-03 -3.59483206817912e-02  2.12306761087102e-01 
 H  2.18901730494727e+00  3.61581344367328e+00  7.19283567268585e+00    -3.65018774197282e-01  2.63211378239662e+00  8.14881513118623e-02 
 H  7.80327765739596e+00  5.28571398671481e+00  5.68968528059627e+00     2.26115308864808e+00  6.18899016260310e-02 -6.15574518443479e-01 
 O  1.40803646272250e+00  8.18049908479967e+00  2.91240376791662e+00    -1.02400217924370e-01 -7.54535690881676e-01 -2.89619226828908e-01 
 H  8.40033090964311e-01  1.90145813449745e+00  7.06103544621919e+00    -2.07708827179294e+00  1.96015046128741e-01  2.03509338051696e+00 
 H  4.05456691974227e+00  7.09163090485789e+00  6.91573632785476e+00     7.31923022704719e-01 -2.79032202051756e+00  7.93324087225352e-01 
 O  1.23031039964978e+00  2.39604744652330e+00  4.43099548976490e+00    -1.43394628512068e-01  7.69649724255281e-02 -1.04789541792557e+00 
 H  3.74182135355054e+00  4.17027132064424e+00  8.31545689976464e+00     4.20434063169457e-01 -1.02148009833895e+00 -2.33415919242103e+00 
 H  2.35796040264581e+00  8.29658106195307e+00  6.82535654615594e+00     1.67310926075249e+00  7.87137265803758e-01  2.40854188943128e+00 
 O  2.18310645727751e+00  4.63115133215901e+00  7.47743349505818e+00    -2.96561292002029e-01 -1.71399092417746e-01  6.92212213291512e-02 
 H  4.31039433283599e+00  3.31468860134169e+00  2.86373186374900e+00     2.84099994216063e+01  2.11149294402908e+01 -1.72526278013274e+01 
 H  1.13979937932736e+00  5.65089880892636e+00  2.10548483520531e-01     3.06902013633273e+00 -1.52920924561458e+00  1.79224392738090e+00 
 O  8.09929150389913e+00  1.43828750668376e+00  7.32852318632865e+00    -1.84371402772369e-01  1.03231567286810e-01  7.49458575245153e-01 
 H  5.70080328099226e-02  4.31330801035590e+00  1.09160722885454e+00     1.78519125825115e+00 -9.65709012758283e-01  2.48620552016125e+00 
 H  6.36729688168875e+00  3.68669353761571e+00  6.47554082867183e+00    -2.66408866030625e+00  4.53660499262845e+00 -3.24429178037047e-01 
 O  9.35705081247016e-01  5.55751148062755e+00  3.55584684995911e+00    -3.88193522139106e-01 -8.23642169370679e-01 -1.18834662149707e-01 
 H  4.97403642198974e+00 -5.70649236586649e-02  6.47123564765710e+00     2.78531194078825e-01 -2.89706092600895e+00  3.77647366434018e-02 
 H  4.44403710275030e+00  6.53334540550458e+00  1.40267383565618e+00    -2.52626961981812e+00  8.61700971362960e-01  3.27596205756583e+00 
 O  3.42925915749678e+00  6.30010928266749e+00  1.72645891458509e+00     6.80527797024803e-02 -9.04909572003509e-02  9.86857291659444e-01 
 H  4.35807533067685e-01  3.69127521583300e+00  6.60741258806589e+00    -2.15781615545433e-01 -4.76151928676848e-01  9.19914567246051e-01 
 H  6.16977491248985e+00  6.04312165891164e+00  4.28228653318526e+00     1.72313624740897e+00  1.93764681436453e+00 -4.02948539008852e-01 
 O  6.03900927044815e+00  2.59454873487440e+00  1.27342337258040e+00    -1.65116295731157e-01 -3.58633867968959e-01  1.33195002120937e-01 
 H  5.08116203112648e+00  3.77516683407947e+00  2.63058501117714e+00    -1.04265999316582e+01 -9.84278745717777e+00  5.80276580910524e+00 
 H  1.40150339506255e+00  8.22797264829467e+00  3.99498010694014e+00     2.41412891573695e+00  3.50269786767174e+00  1.04584579223401e-01 
 O  3.50915258802026e+00  3.19144098921252e+00  5.49948979798999e+00     1.01863038448822e-01 -9.73445255622296e-01 -4.25990698713686e-01 
 H  7.79246455136936e+00  7.52772168613386e+00  7.58284901678284e+00     4.83588615320143e-01 -4.03324326376501e-01  2.53704346106876e-01 
 H  6.68995330926864e+00  6.33151417401153e+00  6.08831106157992e+00     3.24598595184025e+00  4.35168190141910e-01  2.60495050157057e+00 
 O  3.32863282799938e+00  2.21442598163269e+00  2.37060268215492e+00     4.38376074245540e-02  1.87487549447973e-03 -2.08622231803459e-01 
 H  8.37705365317013e+00  3.14876858847689e+00  5.23740913148924e+00    -1.34950436281842e+00 -3.69849361735381e-01 -1.86241535122195e+00 
 H  6.85521480365982e+00  3.97711913774308e+00  6.61589384244525e-01     5.67439791062500e-01 -1.90139844107330e+00  2.41746722390950e+00 
 O  8.61611670662227e+00  1.28102303180492e+00  1.17034479112139e+00    -7.37942270002172e-03  3.70164583306591e-01 -2.63329120273175e-01 
 H  8.63750322930065e+00  8.38120078713771e+00  4.62207826591474e+00    -3.38594333751281e-01  3.32751467302382e+00  2.37610759516702e-01 
 H  5.39889774121358e+00  6.31365386228105e+00  7.29539662752794e+00    -4.54404319474238e-01  2.29393778775726e+00  4.32889401849186e+00 
 O  7.53218439946977e+00  8.27199999287539e+00  2.66414030471223e+00    -4.49637879523337e-01 -1.21084690687593e-01 -3.85279062321382e-01 
 H  1.58110729928170e+00  3.56701393332895e+00  2.18837493605142e-01     6.89443389281623e-01 -2.76033336637821e-01  4.55616630144984e-01 
 H  8.10298119496639e+00  4.20484129487255e-01  6.30086374756824e+00    -3.13143736506079e-01 -1.78772051230826e-01 -2.36468846022069e-01 
 O  5.92811082218073e+00  3.01425564772010e+00  5.96517501958716e+00    -5.30368622011208e-01 -2.29363595550013e-01 -3.62003856299084e-01 
 H  5.04766671251248e+00  3.55935632423188e+00  7.33666151220857e+00     1.70499572857121e+00  2.70213014754889e+00 -1.52101897280768e+00 
 H  7.27042631836783e+00  2.12623836361097e+00  7.49183313139283e+00     3.61785025183731e-01  1.21348316954277e+00 -1.96037737488523e-01 
 O  1.79762096702227e+00  1.92745062982948e+00  7.22307771583217e+00     5.28547497274820e-01  4.44338130492831e-01 -9.02305619813611e-01 
 H  3.63184856218732e+00  4.19689630807426e+00  5.15293949456180e+00    -3.05545619284433e+00  4.94864691374520e-01 -6.25077887646939e-01 
 H  5.53731391206995e+00  6.99547376174863e-01  4.98146919029651e+00    -3.12830895264554e+00  2.99131065117688e+00 -1.54220655154017e-01 
 O  7.21814734842173e+00  6.77118127320622e+00  7.98598614777529e+00    -2.04047476613518e-01  1.94945877879314e-01  3.43460601206015e-01 
 H  2.55484837047154e+00  6.04933975686947e+00  1.61100019282323e+00    -1.75004111778082e+00 -7.01675765654365e-01  8.63398479966324e-02 
 H  8.17784183851507e+00  1.44093119228723e+00  2.80765414898950e-01     2.33818712261173e+00 -4.41552386148971e+00  1.38706874907037e+00 
 O  9.99931885935604e-01  6.68552517335239e+00  6.17666380292144e-01    -4.60742968458649e-01  2.00005340382320e-01 -1.56308702946795e-01 
 H  4.97782122060306e+00  3.02896707039049e+00  5.54259093968620e+00    -1.66667688626564e+00  8.96372628902943e-01 -6.38188108343475e-01 
 H  6.83351105872563e+00  2.04937649432426e+00  1.68797968543891e+00    -3.09332619317625e-01 -3.13533450333290e-01  2.68352085715281e-01 
 O  5.76274898542270e+00  4.69592255087364e-01  6.84481934359319e+00     4.22307093102054e-01  3.96612582447601e-01 -5.61189392004790e-01 
 H  4.49159125205272e+00  3.33525701078558e-01  5.61740606409580e-01     9.79907464160173e-02 -2.37733871105111e+00  1.29858641913051e+00 
 H  2.65621721979638e+00  1.93345767471078e+00  1.74014158999088e+00    -6.36873139412281e-01  4.49263572403425e-01 -1.12368639932515e+00 
 O  3.23667634775023e+00  6.43228442355199e+00  4.33740666174880e+00    -4.62027407847651e-02  3.33305968578705e-01 -8.47112086047850e-01 
 H  1.69570724357796e+00  4.16021032669999e+00  1.83369100509213e+00    -2.13499821818373e-01 -2.00525349656280e-01 -5.74296897779476e-01 
 H  2.74213848778589e+00  2.61070641305129e+00  6.01084590760897e+00     3.12590271274345e-01  9.64552642032772e-02 -1.35405382075403e+00 
 O  4.80741711422095e+00  4.03255579059686e+00  3.57240339241172e+00     4.82246960215467e-02  9.81506166392669e-01  6.97578752258065e-01 
 H  4.67063225595153e+00  5.23079917625809e+00  7.87026241353678e+00     3.45003749061344e+00  2.10947905212329e+00 -3.43641858635550e-01 
 H  7.23476988753739e+00  2.55853569772938e+00  2.75094394445286e+00    -3.20857220692906e+00 -2.09385392529687e+00  5.70316859448860e-01 
 O  5.10473091595153e+00  8.18857759186466e+00  8.41583855063036e-01    -2.87833071315051e-01  1.22232514022980e-01  8.26630053175226e-01 
 H  1.35384687626302e+00  6.64307824131970e+00  7.65220531304178e+00     1.36763899907066e-02  4.65753637114965e+00  2.67536418690761e+00 
 H  3.63293201779209e+00  6.13417656636429e+00  5.29269362206833e+00    -5.81121578224282e-01  1.80215958496387e+00 -1.39488154995121e+00 
 O  4.72189649311510e+00  6.40294758877772e+00  6.56928033237165e+00     2.03664494911410e-01  3.93932478391296e-01  3.55320073535573e-01 
 H  2.29661002989887e+00  2.82882484919133e-01  3.05350821232590e+00    -6.75337694491161e-01 -9.32436419526152e-01 -8.36064488269173e-01 
 H  6.06803801731542e+00  7.92557509256272e+00  1.19079469426683e+00     3.64496267499110e+00  1.13877154041470e+00 -1.07799109609334e+00 
 O  3.18992756187558e+00  8.60945613546135e+00  6.26910525996150e+00     9.87304237233121e-02  1.36118815628001e-01  4.38498269411151e-01 
 H  4.46916758871946e-01  3.11757042426785e-01  1.24779952485598e+00     7.18820327250816e-01 -1.29272339339418e+00 -3.19688060345508e+00 
 H  7.42515725267524e+00  6.04348318727885e+00  3.39661306564366e-02     3.22925948442602e+00 -2.72130832805046e+00  1.90101871679285e+00 
 O  7.78587058738218e+00  4.41724752953173e+00  4.37983824884718e-01     3.38012361572273e-02  7.55845847306131e-01 -2.50129635350487e-01 
 H  8.23335384584346e-01  3.33892607062926e+00  4.14563542569796e+00     2.87665058202652e+00 -3.35772300380357e-01 -5.39194822905853e-01 
 H  6.66862937920962e+00  8.53172566625068e+00  3.11190771773832e+00     6.93836631516019e-01  1.85561701405296e+00  7.39860055799341e-01 
 O  6.85673579308390e+00  5.57596900478503e+00  5.36212299218722e+00    -1.88398348212254e-01  1.01172275609047e-01 -7.61372672231442e-02 
 H  3.00816600607087e+00  7.93935108907599e+00  5.46364329241288e+00     1.81469062578213e+00 -1.68599131204647e-01 -9.51284425528607e-01 
 H  2.47792295722960e-02  5.21542314655392e+00  3.40692358707952e+00    -1.71284713699709e+00  1.07196224032902e+00  1.33463365617801e+00 
 O  4.68890902503873e+00  4.17604575305216e+00  8.15615550307015e+00     1.20584057420454e-01  9.52713529287659e-02  9.84297753557973e-02 
 H  6.67946239965331e+00  7.93908829139575e-02  7.27145065301200e+00    -1.78013551535760e+00 -1.76582599806991e+00 -1.37422877895622e+00 
 H  6.76681404274475e+00  2.88218684451719e+00  4.36713825244694e+00    -8.38227694714551e-01 -1.61122714070961e+00 -9.97955419457132e-01 
 O  5.48776447089845e+00  5.06652479965134e-01  3.97329689459266e+00     5.09305126798290e-01  4.49034015387790e-01 -4.64875588717384e-01 
 H  6.83155022829219e-01  6.48468779312284e+00  3.62311517530943e+00    -1.01986329435727e+00 -7.05700637996512e-01  9.38037740678066e-01 
 H  1.73866439983792e+00  1.50974807935022e+00  4.40490394146795e+00    -1.96125792916317e+00 -8.24209820954040e-01 -3.50356947051254e+00 
 O  2.86898832403925e+00  7.59685847168997e-01  3.12678767779890e-01     6.54832755484986e-03 -2.51768933876405e-01  2.97490604175323e-01 
 H  3.84225722962874e+00  2.91436715755242e+00  3.09441173155571e+00    -1.77796785025554e+01 -1.45324365960731e+01  1.06013196260024e+01 
 H  5.23946864188289e+00  2.31959367197998e+00  8.63785240714100e-01     1.80714300569222e+00 -2.47871039540476e-01  2.36206643567413e+00 
 O  5.61409426057266e+00  6.44588082900702e+00  3.49621782004014e+00    -2.33667214364903e-01 -6.58880267135978e-01  3.22010666423709e-01 
 H  7.61848612413433e+00  5.41606537194386e-01  2.35599687644573e+00     9.02988099678756e-03 -5.20261044940113e-01  2.91641325745600e+00 
 H  9.20940996557093e-01  6.81926956050888e+00  6.27170962888957e+00     2.06935904391748e+00 -1.20430475802008e+00 -1.92328069535509e+00 
 O  1.26961339988210e+00  3.67759778796642e+00  1.15831068727099e+00     2.40938887229063e-01  2.56912994580825e-01  7.47867230535997e-02 
 H  2.21984070994108e+00  1.57178836737433e+00  8.00490253449015e+00    -3.11525080906971e+00  2.49559989842257e+00  2.33086741735792e+00 
 H  4.49480723451607e+00  7.72434048370723e-01  4.00878288965459e+00    -1.93182022464189e+00 -6.45906521403477e-01  2.67397993717713e-01 
 O  8.36719081861953e+00  3.93224497823249e+00  5.82033846431185e+00    -3.69499237289187e-01 -7.62428318608980e-01  7.45298747589262e-02 
 H  2.18292031317465e+00  4.09954366056367e-01  1.08427222819887e+00    -2.33925742081943e-01 -1.14259611026322e+00 -8.90063630068870e-01 
 H  2.57301552395964e+00  5.81632416013492e+00  3.92387635223119e+00    -1.57994331626122e+00 -2.16560539575300e+00 -1.73618793237717e+00 
 O  7.42672062372967e+00  2.93712614909089e+00  3.60178551344075e+00     4.69814308067870e-02 -1.32986915033553e-01 -2.03100063812062e-01 
 H  4.16058994973332e+00  6.48662710036426e+00  3.62300915606511e+00    -1.86235314263293e+00 -3.40591063914962e+00  2.38307389973469e+00 
 H  6.34216747807104e+00  6.75477631576098e+00  2.86291493872955e+00     1.90053611890845e+00 -1.72412183985233e+00 -6.18140882805753e-01 
