4

H     10.8113      4.4922     13.0417
O     11.2376      3.2286     11.1869
C     10.0202      3.2261     11.4338
O      9.8370      4.3009     12.6868
4

H     10.8121      4.5517     12.8244
O     11.2264      3.1913     11.0414
C      9.8386      3.1949     11.4273
O      9.9201      4.1917     12.5382
4

H     10.6255      4.4850     12.0852
O     11.0889      3.1091     11.0280
C     10.0192      3.0834     11.4466
O      9.9856      4.0265     12.5230
4

H     10.7337      4.4124     12.1257
O     11.0848      3.0678     10.8862
C      9.8686      2.8765     11.5221
O     10.0416      4.0047     12.5993
4

H     11.0251      4.7075     12.1358
O     10.9876      3.0814     10.9175
C     10.1069      2.8901     11.4438
O     10.2665      4.2466     12.5722
4

O     11.9863     11.4637      2.6503
C     12.5682     12.4051      1.6322
O     12.0681     12.8836      0.4598
H     10.8820     11.9041      3.1742
4

O     11.9720     11.5304      2.7305
C     12.5507     12.4632      1.6474
O     12.0690     12.8610      0.5447
H     10.9025     11.5779      2.7701
4

O     12.0188     11.5163      2.8897
C     12.6736     12.5046      1.5554
O     12.0521     12.7873      0.5315
H     11.1130     11.8708      3.0311
4

O      1.9656     10.1863      2.4772
H      2.1319     11.2147      2.4428
O      1.9143     11.2584      0.5563
C      1.4945     10.2807      1.1777
4

O      1.9553     10.1762      2.5055
H      2.0530     11.1255      2.6643
O      1.8336     11.2409      0.5683
C      1.4350     10.2208      1.0644
4

O      1.8402     10.0450      2.5224
H      1.9817     11.0166      2.4862
O      1.8583     11.1361      0.7019
C      1.4378     10.0810      1.1871
4

O      1.7918      9.9814      2.5090
H      1.9288     11.1143      2.9038
O      1.8252     11.2245      0.6793
C      1.4665     10.0741      1.3180
4

O      1.7789      9.9927      2.4652
H      1.5491     11.1106      2.7488
O      1.7553     11.2037      0.6649
C      1.5780     10.1052      1.2414
4

O      1.7876      9.9023      2.3925
H      2.3071     10.7629      2.4576
O      1.6076     11.2126      0.7017
C      1.4347      9.9228      1.1012
4

O      1.8835      9.8766      2.4045
H      2.7233     10.2991      2.4302
O      1.5348     11.1724      0.7148
C      1.4045      9.9348      1.1370
4

O      1.8664      9.9496      2.3813
H      2.7077     10.4908      2.2606
O      1.6089     11.1225      0.6276
C      1.4111      9.9842      1.1436
4

O      1.8947      9.9223      2.5562
H      2.4378     10.7285      2.3036
O      1.7218     11.0416      0.6054
C      1.3350     10.0247      1.1924
4

O      1.7558      9.9408      2.6180
H      2.0915     10.6680      2.9148
O      1.7344     10.9800      0.5085
C      1.3184      9.9563      1.3866
4

O      1.8082     10.7349      2.0446
O      2.0069     10.9239     -0.3536
H      1.6971     10.0943      2.5659
C      1.4049     10.5170      0.6072
4

O      1.8995     10.6669      1.9204
O      1.9846     11.0634     -0.2422
H      1.9069     10.1092      3.0029
C      1.4665     10.4612      0.7166
4

O      1.9470     10.6276      1.9438
O      1.9755     11.0400     -0.1576
H      1.8279     10.0263      2.6349
C      1.4608     10.5151      0.7727
4

O      2.2228     10.6062      1.9677
O      2.0039     10.9156     -0.0382
H      1.2031     10.5943      2.5152
C      1.6426     10.1631      0.7864
4

O      1.9868     10.6301      2.0526
O      2.0583     10.8313     -0.0374
H      1.8478     10.9081      3.2441
C      1.6848      9.9543      0.8296
4

O      1.6902     10.5977      2.0419
O      2.0530     10.6099     -0.1053
H      1.6207     10.2891      3.0666
C      1.7792      9.9611      0.8872
