240

C     19.5611      9.1985     13.7302
C      4.0617      1.8333      7.0190
C      2.7764      3.1079      0.9417
C      6.9876      5.1674      2.6379
H     -2.8796      2.9872      2.4728
C      7.3956      3.7978      2.6918
C      3.1845      4.0369      5.6249
C     15.8044      7.4047     19.5196
C      5.8910      2.0207      4.1843
C     13.9868      8.5640     13.8487
N     -0.0857      3.2219      6.1372
C      0.5096      5.9287      0.4800
C      3.0859      4.1946      7.3224
H      0.4530      5.9046     -0.6567
C     15.6514      6.2954     17.4051
C     16.6936     11.0236     16.3338
H      1.5626      0.5423      9.8210
H     -2.8049      2.2822      5.5102
H      5.9577      5.2693      3.2971
C     16.7572      9.4433     15.9624
H      8.1297      3.5123      3.5634
H     12.6351      7.4267     10.7443
H     -0.8979      5.0708      6.4893
C      2.8458      2.6220      7.5223
H     -3.9462      9.7108      1.2513
H      6.6576      1.2730      4.4175
C      8.0214      0.7706      7.8241
H      2.6959      4.0544     -0.8331
C      7.0811      5.9554     10.1026
H      1.4948      6.2523      9.4183
C      6.3463      2.7359      2.9509
H      6.3246      5.0374      7.4811
H      5.0199     -2.6010      8.0230
C     17.2199     11.0862     17.5413
C     -2.9954      8.3031      5.1700
O      1.9632      8.6290      4.7824
C     -1.5827      7.3292      7.3421
C      8.6562      8.2305     12.1873
C     20.5061      8.0170     13.1092
C      6.5025      7.2503     -0.5146
H      5.3428      3.9446      1.4222
H     16.8249      9.6453     13.7683
H      2.2413     -0.7104      2.9746
H     -5.0544      5.5865      8.2331
C      7.1838      6.6441     11.2471
C      7.6116      6.3548      3.7929
H     20.9309      9.9238     15.4697
C     -1.0307      6.3567      5.1553
H     15.4374      9.2365     20.9744
H      4.1357      1.7765      3.2298
H      3.8204      6.8885     -0.1423
C      9.8737     -0.9777      7.2801
C      5.6839      5.3966      9.5814
C     16.0217      7.7731     17.9288
C      4.4123      6.1819      0.3383
C     17.1981      9.0814     14.6243
H     -3.8033      7.7620      6.1609
H      8.3173      8.2936      3.5929
H      3.7109      0.7206     10.2067
H      7.4094      0.6070      9.8462
H     18.1053     12.9563     17.9677
C     -0.3883      3.1026      8.3577
C     13.4151      8.2766     12.3789
C      1.5657      1.9144      7.0774
C     -0.6899      6.4863      1.2423
H      5.8803      7.8544     -1.0972
H     -3.5697      3.4841      4.6671
H      5.8288      4.4968      6.2688
C      9.9963      7.6876     12.9905
C     16.0653      8.7345     20.1958
C      3.3873      1.2186      9.1364
C      3.4056      1.7977      4.5246
H     -2.1520      9.6582      2.4169
H     18.8174     11.7755     18.7002
C      4.0143      3.7176      3.0743
H     -4.0969     10.1061      5.3052
C     -2.2840      8.5467      1.0283
C     11.0327      7.3447     12.1352
H     -2.2222      9.6041      7.2379
C      5.3216      3.0218      5.1961
H     16.9546     12.3036     19.3272
H      7.6981      3.3301      1.6975
H      7.6968      1.2424      6.9459
C      2.7208     -0.6896      8.0106
C      5.1014     -1.4560      8.1564
C     -2.0290      4.7214      3.2435
C     16.0362      9.8115     19.3314
C      2.8929      3.7178      2.1550
H      2.1657     -1.5490      7.6812
H     -3.4952      4.1453      1.6274
H      1.2253      3.5517     -0.4454
O      5.3332      7.2226      6.6178
C      0.7862      7.9278      4.6198
H     16.9746     10.6071     19.9184
C     -2.8586      8.3111      3.6580
C     -1.9019      7.4483      3.2333
C     -2.5260      7.9221      8.0727
H      1.0653      2.1998      4.7095
H     14.4645      7.3725     10.8917
H      6.3068      1.9406      2.3193
H     -0.8971      2.4415      8.8808
C      3.8458      1.7858      0.9071
C      0.1252      8.5220      2.0154
C      0.0599      3.7394      3.8246
C      7.2006     -1.3914      7.4783
H      2.5098     -0.5634      4.4969
H     -3.1119      8.2391      7.1529
H     15.0895     10.0507     18.9924
H     15.4898      6.4809     13.8678
O      0.1793      9.2063      6.3454
C      6.3976     -0.9605      8.3991
C      0.5052      6.5660      6.6935
C     15.1238      7.5777     14.1477
C      0.7051      7.5695      3.1632
H      8.6358      1.3786      8.5836
C      2.6264      1.2077      3.4575
C      0.3616      2.5935      7.0898
C     -2.1851     10.1469      6.3889
C     -2.5076      2.7830      4.6858
C     17.7275     12.0289     18.4752
C      3.4243      3.4244      9.8289
C     -1.1461      7.9207      1.6744
C      4.0978     -0.5871      7.9390
N      2.4162     -0.0729      3.6645
H      2.2463      1.3197     -0.2186
C      3.2966      0.8374     -0.3188
O     17.2830      6.0952     15.9949
C      9.3901      6.6788      1.4105
H     18.3819      9.5534     18.6038
H      1.5718      0.9585      7.8211
C     -2.5749      4.1307      2.2776
C     -2.6689      7.6390      9.5769
H      1.6630      1.4817      6.1080
H      7.2810      5.2103      0.1951
C     -2.7861      9.6318      1.5753
H      3.0760      6.7986      8.7990
H     -2.6543      5.3387      5.9631
H     -1.0842      9.1399      4.1829
H     14.4930      9.3094     11.1019
H      3.0945     -0.3037     -0.2977
H     -0.9914      3.9476      8.1945
C     15.1459      7.3838     15.4312
H      4.8402      5.7711     10.2201
C     14.4058      8.1851     11.4424
H      3.5835      2.9754     10.9756
H     16.9804     12.0408     15.8589
C      4.3319      8.5819      4.3107
C      7.5939      7.7532      2.9060
C     20.2297     10.2388     14.5090
C     18.5121      8.7191     14.7912
C      4.0761      6.3676      6.6702
C      1.7888      4.8024      2.3008
C      5.8010      6.5455      0.5385
C      5.5456      7.6058      4.2598
C      7.9668      7.0975      1.5362
C      4.0790      5.2590      7.7244
C      1.4091      4.9769      0.9453
H      9.3140      6.9387      4.2514
C      6.4383      7.4440      5.7397
H      9.4224      5.8501      0.7620
C      7.0394      5.8912      1.2914
H     -0.0882      3.1153      2.8654
H     -1.7493      6.8536      9.6062
O      7.5967      7.4005      6.1940
H      8.8834      9.5496     12.2146
H      1.7016      1.7137      2.8759
H     -0.0660      9.7737      2.2013
H      3.7489      5.4369      0.8744
H      4.8069      5.5148      4.7829
C     12.2596      7.7358     11.6728
C     15.9374      6.2904     15.9423
H      1.7855      7.9530      8.6747
C     -1.3857      3.8793      4.3929
C      0.3724      6.6096      5.2675
H      2.7105      0.4982      6.0501
C      1.3778      5.6314      4.6264
H      3.9884      0.2139      1.8857
H      0.2638      7.3195      8.7229
C     -4.7905      5.9393      9.3065
C      4.3814      0.7582      8.2167
O      6.1444      4.1109      5.3614
C      6.2192      8.0707      3.1163
C     -2.9994      9.8410      5.2938
C     -0.1003      6.2320      2.8554
C     -1.3240      6.2572      3.6783
H     17.1443      8.5721     20.6654
H     15.5592      7.8334     11.5406
H     -2.6976      1.9151      4.0861
C      2.2733      0.2534      8.8394
C      0.8370      5.0981      3.2767
C      5.1734      3.5401      2.4137
H      1.1377      4.5844      7.9664
H     10.6200     -0.6455      8.0797
H      7.0205     -1.9343      6.5943
C      1.9376      7.0129      8.5848
C     -1.7207      5.2797      5.8178
C      3.7065      1.1358      2.2527
C      1.6368      4.4039      5.6733
C      1.9011      6.5253      7.1129
C      2.0332      4.1428      0.0197
H     -1.5533      5.7784      1.2775
H      4.9316      1.6155      0.8771
H      4.0506      0.7069     -1.3206
H     -1.5671     11.0937      6.4267
H      4.8988      1.5181      3.9959
C     -0.4620      8.7465      5.1133
C     -3.7392      6.8337      9.9938
H     17.6343      6.1440     15.0863
H     20.7926     10.3999     13.6765
C      8.6043     -0.7626      7.5158
H      9.7470      7.4750      2.0667
H     -2.4291     10.3941      4.5424
H      5.7333      2.1992      9.5795
C     -0.2498      7.0551      7.7149
C      0.7613      3.2103      4.9811
O      8.9792      6.0559      4.2367
C     -1.5674      7.7114      5.6740
C      6.2077      2.3859      7.4408
C      5.1474      2.5969      6.6227
C      3.3088      1.2332      5.7389
H      5.4871      3.7410      7.8648
H      0.1849     10.2262      6.0688
C      1.7953      4.8393      7.2306
C      3.7603      5.4714      5.4133
C      3.0627      2.5728      8.9074
H     19.5317     11.0153     14.2693
C      8.4050      7.3686     11.0169
H      3.5544      5.6100      8.7827
H     10.7561      6.4542     11.2884
H      7.3226      2.3926      7.2888
C      3.8711      3.2134      4.4734
C     17.2147      9.7634     18.2304
C      7.0363      0.4035      8.8737
C      5.4963      4.7729      8.2125
C      5.7466      1.4430      8.6892
H      0.5390      3.6276      9.0500
H     -2.6172      8.4601     10.1058
H     19.2130      9.6642     12.9318
H      3.5793      4.5028      9.5119
H     -3.0500      8.7446      2.5965
