242

C     19.4333      9.2002     13.5849
C     -8.9458     14.7482      7.0134
C      3.1311      3.4118      1.1227
C     -5.8203     17.8239      2.9345
H     -3.0998      3.2246      2.8087
C     -5.3573     16.5419      2.9249
C      2.9381      4.1807      5.7654
C     15.8514      7.3242     19.5255
C     -6.9872     14.8844      4.3986
C     13.9664      8.7145     13.7292
N    -13.2404     15.7000      6.1380
C      0.5976      5.8543      0.5751
C      3.0375      4.1843      7.2029
H      0.2051      5.4910     -0.5670
C     15.6307      6.3936     17.4602
C     17.4557     10.4730     15.9724
H    -11.7421     13.2259      9.4364
H     -2.1099      1.9695      5.8701
H     -6.8520     17.7112      3.2057
C     16.9673      9.0200     16.1776
H     -4.8066     16.0656      3.9884
H     12.6919      6.4125     10.9934
H     -1.4013      4.4741      6.6477
C    -10.0394     15.5625      7.6259
H     -2.8021     10.3459      0.4645
H     -5.8247     14.5910      4.7433
O     15.1573     10.3201     14.7668
C     -4.7575     13.5563      8.2637
H      3.3440      4.6100      1.4829
C      6.8607      6.1764      9.7675
H      1.5165      7.7122      8.9966
C     -6.7387     15.5655      3.0641
H      5.8206      5.2448      7.3213
H     -7.8956     10.5003      7.3717
C     17.5973     10.8177     17.3564
C     -2.8691      8.4254      5.0609
O      1.7999      8.6000      5.0451
C     -1.7202      7.3782      7.1488
C      8.6087      8.1803     12.1674
C     20.4346      8.0920     13.1359
C     -6.6413     20.0284     -0.5202
H     -7.3017     16.9247      1.8345
H     16.7361      8.9417     13.7884
H    -11.6967     12.8766      3.5122
H     -3.6589      5.7560      9.1420
C      7.0522      6.7769     11.1148
C     -4.8527     18.9218      3.4959
H     21.1999     10.4179     13.4766
C     -1.1962      6.2611      5.1371
H     15.5422      8.8538     21.1288
H      4.8373      0.5139      2.0278
H     17.0234      7.5517     15.2914
C     -2.9304     11.7128      7.4744
C      5.5321      5.8997      9.2470
C     15.7743      7.6641     18.0439
C     -7.9064     18.4318      0.2480
C     17.3929      8.8898     14.6741
H     -3.9080      8.1406      4.9967
H     -9.6073     13.9147     10.4591
H     -5.8672     12.7433      9.4383
H     18.5854     12.4133     17.1195
C    -13.1458     15.9308      8.5464
C     13.1175      8.4436     12.2241
C    -11.3313     15.1793      7.0688
C     -0.5721      6.2549      1.3772
H     -7.5195     20.4817     -0.3739
H     -3.3668      3.2287      5.3207
H     -6.8298     18.1328      5.3693
C      9.9633      7.7500     12.9129
O     14.8512     10.5728     12.6055
C     16.4766      8.4881     20.2907
C     -9.8828     14.1249      9.4405
C     -9.5141     14.5620      4.7927
H     -2.1137     10.6188      2.0566
H     18.1757     12.3672     19.1408
C     -8.9842     16.6159      3.2602
H     -3.9110      9.8493      4.7550
C     -1.9535      8.5879      0.7200
C     10.9095      7.0757     11.9893
C     -7.6488     16.0215      5.2249
H     17.0404     12.4697     17.8867
H     -4.8671     16.2278      1.9560
H     -4.5713     14.6944      7.8811
C    -10.3040     12.1735      8.1132
C     -7.7865     11.4866      7.9073
C     -2.0874      4.7970      3.5516
C     16.2404      9.7741     19.2728
C      2.6675      3.7719      2.5746
H    -10.6078     11.2936      7.3773
H     15.7607      7.3460     13.3450
H     -2.4479      4.7400      1.5207
H     12.8621      9.5249     12.0935
H      1.9024      3.8671     -0.9576
O     -7.5334     19.6709      6.7357
C      0.5157      7.7866      4.5789
H     16.7461     10.6754     19.7525
C     -2.6169      8.3266      3.6874
C     -1.8226      7.4947      2.9448
C     -2.7604      7.6124      8.0499
H    -11.7893     15.4297      4.7161
H     14.0849      7.2242     10.8230
H     -6.4985     14.7906      2.3691
H    -14.0837     15.3314      8.3874
C      4.0558      1.9839      0.8848
C     -0.0509      8.4269      2.1485
C     -0.2674      3.8377      4.0092
C     -5.3726     11.6646      7.2294
H    -10.7731     12.1450      4.4231
H     -3.8436      7.6454      7.4723
H     15.4747      9.9432     18.5481
H      1.3185      6.5189      0.0767
O     -0.2007      9.1646      6.4016
C     -6.5992     11.9503      8.0109
C      0.5015      6.8551      6.8498
C     15.1937      7.8449     14.0315
H     15.8235      8.8520     16.1056
C      0.8468      7.3937      2.9780
H     -4.7081     13.8112      9.4715
C     -9.9767     13.9501      3.3745
C    -12.6050     15.6504      7.1597
C     -2.6705     10.4830      6.7641
C     -2.4877      2.6152      5.1069
C     18.0544     12.0863     17.9307
C     -9.8885     16.7709      9.8607
C     -1.0942      7.6937      1.6946
C     -8.8512     12.4289      8.0011
N    -10.7470     12.7846      3.6213
H      3.6129      1.5798     -1.4135
C      3.2882      1.4526     -0.2953
O     17.0454      6.3643     15.2687
C     -3.4242     19.4156      1.0746
H     18.3544     10.2869     19.0506
H    -11.5941     14.0898      7.5017
C     -2.5042      4.2216      2.4744
C     -2.3938      7.6533      9.3664
H    -11.4157     15.0313      5.9824
H     -4.6966     17.8965      0.8061
C     -2.3311      9.8477      1.2188
H      1.9137      5.8805      9.4655
H     -2.4646      5.4827      6.4787
H     -0.9325      9.7453      4.7796
H     14.6659      8.8331     10.7868
H      2.3252      1.3893     -0.1159
H    -13.3867     16.8230      8.9311
C     14.9352      7.1622     15.2187
H      4.8119      6.1353     10.1545
C     14.3749      8.0188     11.4748
H     -9.9531     16.1890     10.7062
H     18.2949     10.7256     15.2614
C     -8.3808     21.4884      4.5936
C     -5.0582     20.2557      2.9108
C     20.3073     10.5062     14.0273
C     18.8193      8.6212     14.7094
C     -8.9698     19.1845      6.6618
C      1.6021      4.7589      2.4167
C     -6.6808     18.9069      0.4890
C     -7.1992     20.7521      4.3632
C     -4.8860     19.6925      1.5887
C      4.0388      5.1831      7.7123
C      1.1292      4.6388      1.0527
H     -5.2838     19.7888      5.0313
C     -6.9845     20.0246      5.4805
H     -3.4054     18.7596      0.1844
C     -5.5515     18.3703      1.3010
H     -0.2595      2.8777      3.3716
O     -5.5919     20.3521      5.7816
H    -10.8701     14.6202      3.1105
H     -0.4900      9.3480      2.9967
H     -8.0905     17.6855      1.0975
H     -8.2662     18.4394      4.8037
C     12.1636      7.3682     11.6238
C     15.8931      6.4198     15.9020
H      2.9043      7.2554      9.0383
C     -1.9359      4.0767      4.7938
C      0.2554      6.5716      5.2861
H     -9.7622     12.9426      6.4639
C      1.4084      5.6799      4.8321
H      3.2902      0.0095      1.9479
H     -0.6177      6.4648      8.8455
C     -4.6574      6.3611      9.1496
C     -8.6972     13.8677      8.4152
O     -7.0001     17.2131      4.9127
C     -6.5570     20.8394      2.9661
C     -3.0606      9.9550      5.4855
C     -0.1586      6.0736      2.8046
C     -1.5085      6.2081      3.5505
H     17.5468      8.8370     20.3440
H     15.1876      7.6940     12.0601
H     -2.0722      2.0673      4.2795
C    -10.9029     13.1107      8.9499
C      0.6582      4.9986      3.4417
C     -7.9095     16.3926      2.6424
H      0.7608      4.7123      7.9829
H     -1.8529     12.1133      7.7741
H     -5.1361     11.1856      6.4252
C      2.0145      6.7888      8.7929
C     -1.5785      5.0709      5.7621
C      3.8781      0.9080      2.0716
C      1.5935      4.4901      5.6757
C      1.7943      6.4480      7.2434
C      2.0724      3.7535      0.2354
H     -1.3709      5.4597      0.9611
H      4.9615      2.0220      0.3779
H      3.6842      0.5144      0.0898
H     -1.5568     10.2610      6.7619
H     -7.7516     14.0676      3.8000
C     -0.5948      8.5988      5.1748
C     -3.7277      7.0062     10.0003
H     -7.0414     19.9964      2.5705
H     19.8904     11.2965     13.5499
C     -4.2767     12.2751      7.6766
H     -2.9039     19.8803      2.0651
H     -2.5865     10.6999      5.0662
H     -7.2226     14.7068      9.6403
C     -0.5362      6.6970      7.8352
C    -12.2922     16.4078      5.0465
O     -4.1850     18.5161      4.4241
C     -1.6750      7.5304      5.5604
C     -6.6852     15.3411      7.5715
C     -7.6816     15.5215      6.6106
C     -9.1628     13.8501      5.8895
H     -5.1580      7.2339      8.4799
H      5.7367      4.0295      8.3694
C      1.6518      5.0033      7.4336
C     -9.3160     18.3590      5.3166
C    -10.0611     15.6263      9.2112
H     20.4218     10.7245     15.0200
C      8.3611      7.3902     11.0524
H      3.5088      5.4191      8.4801
H     10.2113      6.4580     11.4551
H     -5.9791     16.1526      7.8146
C     -9.1990     16.1379      4.7358
C     17.4829      9.7704     18.4212
C     -6.5254     13.2408      8.8094
C      5.3810      4.9245      8.2583
C     -7.1830     14.4341      8.5479
H    -12.8453     15.6165      9.7523
H     -1.4865      7.8868     10.1640
H     18.7604      9.5347     12.7519
C     14.4969      9.9723     13.7761
H     -9.0969     17.2780      9.4837
H     -2.6377      9.3525      3.4265
