248

C     32.6291     -3.6813     13.8226
C      4.3838      1.3269      6.7018
C      3.1589      3.1247      0.9994
C      7.1300      5.3713      2.7404
H      9.8476     -9.7507      2.0698
C      7.4977      3.7869      3.0056
C     16.1880     -8.8696      5.5747
C     28.8496     -5.5401     19.6420
C      6.0204      2.1113      4.1162
C     26.7417     -4.2473     13.6596
N     -0.1421      3.0952      6.0192
C      0.6893      5.9049      0.4346
O     11.9175    -11.4404      2.5154
C     16.1202     -8.8389      7.0017
H      0.6619      6.4869     -0.5743
C     28.4742     -6.6256     17.5155
C     29.6173     -2.1997     16.7360
H      1.8221      0.7375      9.7866
H      9.9106    -10.6266      5.2099
H      6.3060      5.1372      3.2953
C     29.5952     -3.6274     16.2861
H      7.9688      3.5944      3.9968
H     25.5840     -5.1411     10.5993
H     11.4343     -8.4682      6.1187
C      2.8506      2.5787      7.6223
H     -3.5540     10.2525      0.6665
O     27.7523     -2.2787     14.7674
C      8.5740      0.7663      8.5615
C     19.5136     -6.8246      9.9904
H      2.3921      6.4362      9.2953
C      6.3386      2.8419      2.7701
H     18.9098     -8.5224      7.5991
H      5.5373     -2.5241      7.5550
C     30.6100     -2.1134     17.6740
C      9.8307     -4.5148      4.8736
O      1.7467      8.5909      4.9231
C     -1.9351      7.6909      6.9052
C     21.5784     -4.7645     12.3363
C     33.3359     -5.0323     13.2150
C      6.2119      7.2310     -0.2906
H      4.7787      3.1046      1.2739
H     29.9699     -3.5465     14.0585
H      2.8091     -0.3268      4.3214
H     -4.5672      5.2562      8.8520
H     28.5335     -2.2779     17.2891
C     19.9255     -6.2149     11.1810
C      7.8131      6.3352      3.5070
H     34.3075     -1.7901     13.9641
C     11.6148     -6.6274      4.7290
H     28.5241     -4.4541     21.3776
H      5.0781      1.3183      2.4221
H     30.2269     -6.0567     15.2337
C     10.2825     -1.7765      7.6074
C     18.3305     -7.1237      9.3405
C     28.9108     -5.2563     18.1897
C      4.7364      5.4088      0.7891
C     30.3749     -3.7816     15.0881
H      9.1505     -5.3533      5.6181
H      8.9905      8.1183      2.9502
H      3.7136      1.1056     10.4085
H      7.1003     -0.2123      9.7251
H     32.1267     -0.7429     18.4405
C     -0.2563      2.1322      8.3405
C     26.1894     -4.2597     12.1972
C      1.6261      1.7083      6.9984
C     -0.4803      6.4321      1.1818
H      5.2543      7.7548     -0.4592
H     10.8662    -10.4760      3.5143
H      6.9648      4.1947      5.0946
C     22.8709     -5.2717     12.9039
O     27.6413     -1.9102     12.7503
C     28.8856     -4.3263     20.3637
C      3.6930      1.2686      9.3704
C      3.0956      1.4632      4.7156
H     -2.0434     10.9429      1.3028
H      4.2797      5.8240     -0.1458
C      3.7760      3.2775      3.2484
H      8.8162     -3.5084      6.3062
C     -2.1266      8.6878      0.9059
C     23.7117     -5.8931     11.9831
H      0.1349      8.5995      7.3538
C      5.4577      2.8781      5.0839
H     31.0525     -0.1254     17.2968
H      8.3503      3.5888      2.4718
H      8.1028      1.2676      7.7580
C      3.0275     -0.8820      8.3157
C      5.4511     -1.4382      7.8281
C     10.7863     -8.2429      2.8581
C     29.0864     -3.0075     19.4352
C      2.6912      3.6218      2.3544
H      2.1896     -1.4194      7.7307
H     28.8334     -5.0993     13.3003
H     10.6088     -8.4950      1.0657
H     25.2643     -3.4610     12.1016
H      1.7494      4.0239     -0.5547
O      5.3641      6.9812      6.9279
C      0.3634      7.8096      4.5411
H     29.0464     -2.3532     20.2256
C     10.2328     -4.5998      3.4874
C     10.9635     -5.4461      2.8091
C     -3.0267      7.1967      7.4430
H     27.6851     -5.4886     10.8785
H      6.3479      1.8262      1.9563
C      3.7665      1.6437      0.8223
C      0.1280      8.5383      1.9406
C     11.9229    -10.4308      1.5092
C      0.0780      3.7259      3.7138
C      7.9337     -1.2857      7.0309
H      1.3554      0.2777      3.8743
H     -3.7483      6.9546      6.9061
H     28.0549     -2.8222     18.7844
H      1.6617      6.6029      0.9096
O      0.3413      9.2139      6.6455
C      6.7149     -0.7129      7.6317
C      0.1802      6.6139      6.6808
C     28.0344     -5.1197     13.9929
H     28.3284     -4.0286     16.1034
C      0.6104      7.5703      2.9635
H      8.8819      1.2090      9.5370
C      2.6833      0.8023      3.1540
C      0.2758      2.3998      7.0413
C     10.5630     -2.7947      6.7507
C     10.4135    -10.1408      4.4767
C     31.2430     -0.9624     17.9172
C      2.8845      3.4582     10.0064
C     13.2629    -10.2437      1.3507
C     -1.1788      7.8710      1.4801
C      4.3611     -0.7782      7.9929
N      1.9444     -0.4519      3.7891
H      3.5607      0.3235     -1.0473
C      3.0261      1.0663     -0.2559
O     30.0745     -6.8501     15.7499
C      9.5508      6.4947      0.8194
H     31.1862     -3.9063     19.0270
H      1.7433      0.8387      7.7070
C     10.6169     -9.1199      1.8793
C     -3.0126      7.3833      8.9097
H      1.8836      0.9652      5.9585
H      7.4456      5.1735      0.4434
C     -2.5837     10.0132      0.9853
H      0.5778      6.6004      9.5854
H      9.6656     -7.6040      5.5948
H     -1.2698      9.5504      4.7772
H     27.8983     -4.4195     10.2510
H      2.4607      2.0419     -0.6590
H     -0.1374      2.8855      9.1218
C     28.0115     -5.1955     15.4783
H     17.2927     -6.8237      9.8270
C     27.4714     -4.4938     11.2639
H      2.7564      3.3577     11.1909
H     29.2284     -1.5943     15.9139
C      4.1776      8.4496      4.6285
C      7.9657      7.6517      2.5863
C     33.3747     -2.2382     13.6071
C     31.7744     -3.9524     14.9997
C      4.1997      6.4361      6.8622
C      2.0807      4.9302      2.3517
C      5.7865      6.2849      0.6828
C      5.6452      7.6721      4.4869
C      7.8944      6.8890      1.2430
C     16.8456     -7.6731      7.7215
C      1.7761      5.0200      0.8660
H      7.5159      8.2998      5.3522
C      6.2005      7.6514      5.9219
H      9.6763      5.4048      0.4770
C      6.9922      5.7736      1.4461
H     -0.9114      3.7934      3.4576
O      7.4410      7.6947      6.1808
H     21.8817     -3.7133     12.5077
H      1.9475      1.5378      2.6838
H     -0.0202      9.6147      2.2099
H      4.7105      4.8061      1.7028
H      4.5419      5.6934      4.5980
C     24.9764     -5.3775     11.6701
C     28.7980     -6.4041     16.0703
H      0.7479      5.1266      8.8205
C     10.2887     -8.7569      4.1653
C     13.1084     -6.4351      5.1377
H      3.1166     -0.2653      5.8793
C     14.2521     -7.3601      4.6822
H      3.8247     -0.3052      1.7767
H     -0.5670      6.8919      8.7815
C     -5.3467      6.1233      8.9747
C      4.7842      0.8474      8.2308
O      5.8793      4.1855      5.0626
C      6.5289      8.0343      2.9746
C      9.6155     -3.3044      5.7282
C      0.0599      6.2296      2.6680
C     11.2416     -6.8822      3.3162
H     29.9199     -4.2214     20.7346
H     28.0794     -4.3672     12.2415
H     26.9237     -2.3790     12.2773
C      2.5037      0.4147      8.8351
C      0.8960      5.2400      3.2347
C      4.9587      3.4901      2.3104
H      1.0518      4.0333      7.8174
H     10.9503     -1.5008      8.4895
H      8.1458     -2.2705      6.8846
C      1.3202      6.1416      8.8259
C     10.8010     -7.8632      5.3605
C      3.8654      0.8671      2.1517
C     14.4986     -8.6466      5.4745
C      1.3962      6.1217      7.3363
C      2.4505      3.9619      0.1893
H     -1.3121      5.5991      1.3385
H      4.8473      1.1289      0.8184
H      2.3764      0.1452      0.2122
H     11.6583    -11.9988      1.7661
H     11.7593     -2.7085      7.0795
C     -0.6205      8.8288      5.3204
C     -4.0840      6.9395      9.6555
H      5.9046      7.2044      2.3444
H     32.6141     -1.7022     13.0100
C      8.9676     -0.6255      7.6975
H     10.3375      6.9023      1.5210
H      9.1682     -2.4048      4.9727
H      6.0966      1.7130      9.5044
C     -0.7027      6.8201      7.6344
C      0.7745      3.1935      4.9628
O      8.4047      5.9931      4.5946
C     -1.9674      7.5302      5.5005
C      6.3836      2.5506      7.4771
C      5.5531      2.3074      6.3993
C      3.7565      0.6181      5.5562
H     -5.4885      6.4069      8.0340
H      1.4791      8.9476      6.4288
C      1.7637      4.6283      7.0405
H     11.2496    -10.8087      0.7108
C      3.7613      5.6255      5.4602
C      3.3437      2.5120      9.0524
H     33.0307     -1.9667     14.7861
C     21.3438     -5.4218     11.0574
H     16.1835     -7.2055      8.5907
H     23.0188     -6.2834     11.1590
H      7.2356      3.2645      8.1529
C      3.8902      3.0598      4.6510
C     30.1353     -3.4305     18.5016
C      7.1710      0.2433      8.7727
C     18.0561     -8.1696      8.3761
C      6.1390      1.4275      8.4537
H      0.1705      1.1860      8.6713
H     -2.4269      8.2918      9.0767
H     12.9509     -9.4489      0.4465
H     31.8767     -3.8192     12.9204
H     14.0051    -10.6820      0.5531
C     27.5099     -2.8696     13.6411
H      3.2597      4.4888      9.8030
H     10.5623     -3.5048      3.4741
