246

C     32.6773     -3.9480     13.7918
C      4.1660      1.5584      7.2675
C      2.6712      2.9413      1.2169
C      6.9316      5.2171      2.7434
H      9.7008     -9.4426      2.2157
C      7.5338      3.8065      2.8878
C     16.0857     -8.8202      5.3917
C     28.5951     -5.9706     19.4194
C      5.9979      1.9460      4.0382
C     26.8601     -3.9950     13.6283
N     -0.4314      2.9734      6.2862
C      0.8460      6.0423      0.0704
O     11.8294    -11.1579      2.4772
C     16.0168     -9.0829      7.0152
H      0.2569      5.9416     -0.8237
C     28.5614     -6.7432     17.2741
C     29.5562     -2.7371     16.5737
H      1.5859      0.1847      9.5913
H     10.1580    -10.5528      5.5930
H      6.0476      5.4131      3.1829
C     29.7030     -4.2391     16.0361
H      8.6308      3.4672      3.3497
H     26.0455     -5.8674     10.9188
H     11.9469     -8.0812      6.3681
C      3.1352      2.4550      7.4940
H     -3.8094     10.1293      1.3184
H      6.9022      1.6802      4.4890
O     27.7917     -2.3899     14.8302
C      8.9761      0.9906      8.0584
C     19.5115     -6.9953      9.7796
H      2.5547      6.7961      8.7120
C      6.3882      2.4013      2.8819
H     19.3813     -7.6225      7.6341
H      5.3080     -2.4143      7.9754
C     30.5241     -2.4644     17.6090
C      9.8284     -4.7232      4.7227
O      1.7115      8.3921      4.7326
C     -2.0314      7.2541      6.9995
C     21.4601     -4.5663     12.1267
C     33.2252     -5.1086     13.0144
C      6.1665      6.9924     -0.5045
H     30.3267     -3.6059     14.0375
H      2.5397     -0.7561      4.1323
H     -4.3074      4.7117      9.0315
C     19.5777     -6.1083     10.9748
C      7.9328      6.0260      3.5900
H     34.0531     -2.2364     13.0070
C     11.7152     -6.4473      4.8613
H     28.5956     -4.8711     21.5324
H      4.7270      1.0803      2.4964
H     30.4446     -6.0503     15.4954
C     10.1890     -1.3877      7.5434
C     18.1685     -7.2779      9.2641
C     28.6744     -5.5324     18.0436
C      4.5247      5.5879      0.4888
C     30.6048     -3.9546     14.9858
H      8.7644     -5.1907      4.8573
H      8.6208      8.2625      3.4369
H      3.9458      1.3997     10.3844
H      7.7888      0.0953      9.0545
H     32.1200     -1.4692     18.3476
C      0.1427      2.7065      8.6505
C     26.0515     -4.1512     11.9675
C      1.6528      1.7024      7.0505
C     -0.5253      6.6221      0.9548
H      5.1198      7.8915     -0.3219
H      9.5125    -10.0950      3.8321
H      7.1075      4.2782      4.9335
C     22.8577     -5.1392     12.6234
O     27.6141     -1.7440     12.7114
C     28.9807     -4.6098     20.3877
C      3.6616      1.2177      9.3656
C      3.4148      1.5405      4.8778
H     -2.1180     10.4038      1.5279
H      6.6628      1.3196      5.8463
H      3.4340      5.5790      0.4335
C      4.0441      3.5831      3.2267
H      8.4947     -2.9466      5.8308
C     -2.2505      8.8007      0.5584
C     23.9601     -5.5429     11.5756
C      5.3345      2.8732      5.2656
H     31.1919     -0.6720     16.8469
H      7.9478      3.5336      1.7613
H      8.8602      1.6845      7.1262
C      3.0861     -0.8864      8.2569
C      5.4433     -1.5429      7.4930
C     10.7923     -8.0925      3.2430
C     28.9180     -3.4066     19.6556
C      2.9147      3.5941      2.4109
H      2.7655     -1.1532      7.3798
H     28.7950     -5.6629     13.5469
H     10.6515     -8.1197      1.2727
H     25.1591     -3.7380     12.1739
H      2.4012      3.5937     -0.7540
O      5.3678      6.7945      6.6467
C      0.4072      7.8816      4.6343
H     29.6808     -2.4952     19.9015
C     10.1288     -4.6566      3.3114
C     10.9687     -5.3694      2.5565
C     -3.2701      7.0913      7.7465
H      0.7502      1.9901      5.1023
H     27.8000     -5.4503     11.5980
H      6.5865      1.5173      2.2107
H     -0.8475      2.9898      8.9461
C      3.3208      1.5097      0.9955
C     -0.1166      8.5927      1.8770
C     11.4114    -10.0131      1.6870
C     -0.1377      3.8570      3.6972
C      7.9206     -1.0711      6.8573
H      0.7903     -0.1290      3.7962
H     -3.9374      7.5125      7.2268
H     27.7766     -3.2249     19.2634
H      1.6535      6.7576      0.1536
C      6.7253     -0.7835      7.3484
C      0.1382      6.4424      6.7066
C     28.0924     -5.0102     14.0071
H     28.5115     -4.3552     15.8360
C      0.5892      7.6646      2.7797
H      9.6931      1.2569      8.5420
C      2.5680      1.1242      3.4724
C      0.4270      2.6240      7.1133
C     10.3685     -2.6481      6.9275
C     10.3058     -9.9449      4.6492
C     31.2753     -1.3260     17.7692
C      3.1785      3.4445      9.8542
C     12.7151     -9.7250      0.7921
C     -1.2175      7.9832      1.1991
C      4.5356     -0.6447      8.2422
N      1.8343     -0.1522      3.7720
H      3.1195      1.2819     -1.0512
C      3.0405      0.6946     -0.2662
O     29.9173     -6.7615     15.2755
C      9.5265      6.9032      0.6557
H     30.9632     -3.7557     19.3827
H      1.8319      0.9542      7.5238
C     10.6686     -9.0168      2.1690
C     -3.0905      7.2316      9.1824
H      1.6789      1.7104      5.9057
H      7.6937      5.0305      1.0194
C     -2.8338      9.6745      1.3511
H      0.7858      7.0215      9.3249
H     10.1894     -7.5925      6.3142
H     -1.0241      9.6660      4.7529
H     27.6162     -4.4061     10.2054
H      1.9984      0.7036     -0.4538
H      0.9817      3.1131      9.1123
C     27.8037     -5.4480     15.3454
H     17.7639     -7.8696     10.0447
C     27.6748     -4.4427     11.2469
H      3.7527      3.1699     10.8000
C      4.3262      8.0471      4.3988
C      8.0571      7.3632      3.1105
C     33.2028     -2.5191     13.6087
C     31.9385     -4.2257     15.1704
C      4.1280      6.0601      6.4201
C      1.9757      4.8705      2.2771
C      5.7975      6.2827      0.6782
C      5.6491      7.6145      4.4468
C      8.0920      7.0964      1.1520
C     16.9324     -7.9722      7.5192
C      1.6580      4.9577      0.8629
H      7.0379      8.5047      6.1088
C      6.2265      7.0153      5.4831
H      9.1865      5.6749      0.1693
H     13.2230     -9.4080      1.8200
C      7.0027      5.7924      1.3896
O      7.4145      7.5521      5.8609
H     21.4689     -3.6705     11.2359
H      2.3872      2.0274      2.8513
H     -0.4624      9.6437      2.1452
H      4.6443      4.4246      0.7038
H      4.8144      5.3854      4.2333
C     25.2754     -5.2100     11.5911
C     28.4871     -6.7662     15.7481
H      1.7280      5.4374      9.2136
C     10.7663     -8.6329      4.6188
C     13.1438     -6.3781      5.1385
H      3.1858      0.0942      5.8217
C     14.3899     -7.3569      4.5077
H      3.7025     -0.3161      2.3139
H     -0.7466      5.8107      8.3545
C     -5.0080      5.8430      9.1861
C      4.6947      0.7206      8.5990
O      6.0768      4.1704      5.2825
C      6.5707      7.5630      3.2880
C      9.5509     -3.2857      5.5387
C      0.0616      6.0225      2.4398
C     11.3999     -6.7112      3.2031
H     30.0011     -4.8617     20.7724
H     27.8487     -3.3702     11.4206
H     11.1977    -10.6304      4.1457
C      2.6271     -0.1400      9.3130
C      0.7501      5.0269      3.2369
C      5.1807      3.3939      2.4110
H      0.7179      3.9839      7.5820
H     11.3426     -1.2859      8.0919
H      8.2297     -1.7789      5.7518
C      1.4895      6.3225      8.7586
C     11.0881     -7.7369      5.7194
C      3.7696      0.6887      2.4228
C     14.4892     -8.5150      5.4938
C      1.4148      6.1955      7.2906
C      2.2455      3.7903      0.2427
H     -1.2951      5.8422      1.0712
H      4.5429      1.8043      0.8984
H      3.4387     -0.2763     -0.5518
H     12.5756    -11.1280      1.7805
H     10.6586     -3.5829      7.2936
H      5.5803      0.9464      4.0959
C     -0.6951      8.7438      5.2723
C     -4.2198      6.9438      9.8281
H      6.0826      6.8332      2.4350
H     32.4185     -1.8328     13.1357
C      9.1129     -0.5748      7.5728
H     10.1636      6.5795      1.5045
H      9.7225     -2.4694      4.7238
H      6.1131      1.8834      9.8653
C     -0.7601      6.7733      7.6706
C      0.5098      3.2444      5.0583
O      8.8236      5.4162      4.2483
C     -1.8541      7.5925      5.5259
C      6.1302      2.8626      7.9149
C      5.9005      2.1394      6.5047
C      3.6954      0.9407      5.9554
H      5.3281      3.4625      8.6911
C      1.5896      4.5422      6.9912
H     10.7974    -10.3530      0.5767
C      3.8989      5.3716      4.9461
C      3.1437      2.5303      8.9315
H     33.3056     -2.1603     14.6023
C     21.0035     -5.7013     11.0027
H     16.1416     -7.2346      8.0252
H     23.7371     -6.4555     10.9990
H      7.2610      3.0989      8.1113
C      3.7403      2.9277      4.7088
C     30.2217     -3.4591     18.4881
C      7.1292      0.3710      8.3151
C     18.3075     -8.0010      8.1989
C      6.0960      1.3759      8.8424
H      0.1712      1.7274      8.9065
H     12.4453     -8.6705      0.2982
H     31.6416     -3.7777     13.1976
H     13.0084    -10.7252      0.5930
C     27.2543     -2.5312     13.7862
H      2.7772      4.3953      9.7333
H      9.9528     -3.6880      2.6992
