250

C     32.4900     -3.7314     13.8733
C      4.1099      1.5017      6.9568
C      3.0025      3.1148      1.0631
C      7.0956      5.4059      2.8631
H      9.7002     -9.7552      2.1569
C      7.3259      3.8620      2.9308
C     16.1723     -8.7541      5.4895
C     28.7632     -5.6680     19.8292
C      5.8846      2.0400      3.9498
C     26.7091     -4.3874     13.6976
N     -0.2226      2.6879      6.0523
C      0.6671      5.8655      0.3728
C     16.1869     -8.8825      6.8396
H      0.5004      5.0080     -0.3816
C     28.5294     -6.6654     17.4919
C     29.8188     -2.1476     16.8081
H      1.4352      0.5732      9.0353
H      9.4339    -10.3496      5.0094
H      6.2145      5.4161      3.5294
C     29.5256     -3.5996     16.4591
H      7.3281      4.0346      4.0959
H     25.2926     -5.2395     10.7394
H     11.9201     -8.3332      5.9942
C      3.0878      2.7243      7.4073
H     -3.4215     10.0836      0.3345
H      6.8170      2.1991      4.5448
O     27.9061     -2.5583     14.7862
C      8.4869      0.2085      8.7189
C     19.7309     -6.9495      9.9426
H      1.5971      5.0387      9.2100
C      6.2825      2.8861      2.8379
H     18.7850     -8.5735      7.7118
H      5.7403     -2.6289      7.8375
C     30.6271     -2.1016     17.8555
C      9.9467     -4.5666      4.9346
O      1.7934      8.1223      4.6386
C     -2.0674      7.6090      6.8201
C     21.4471     -4.6459     12.2275
C     33.2001     -4.7470     13.1961
C      6.2236      7.1715     -0.4526
H      5.1271      4.3808      1.4576
H     29.9250     -4.0342     14.0883
H      1.7462     -0.6431      2.5625
H     -4.3448      5.4672      8.2980
H     28.9088     -1.4264     16.9238
C     19.9609     -6.1550     11.1486
C      7.9595      6.3773      3.7022
H     34.1780     -2.0147     13.7849
C     11.6877     -6.6133      4.7939
H     28.3926     -4.1917     20.9856
H      4.7370      0.8336      2.2899
H     30.1752     -6.2675     15.0729
C     10.2220     -1.6196      7.7536
C     18.3566     -7.0771      9.6073
C     28.6720     -5.4043     18.1899
C      4.5862      5.7969      0.7926
C     30.3833     -3.9175     15.1874
H      9.1014     -5.2273      4.9025
H      9.0714      8.0930      3.0795
H      3.8968      1.0273     10.2691
H      6.6377     -0.3034      9.2225
H     32.3016     -1.0057     17.9147
C     -0.1309      2.2656      8.5162
C     26.1716     -4.5402     12.0776
C      1.5365      1.9099      6.9591
C     -0.5117      6.5323      1.0814
H      5.2231      7.7790     -0.5586
H     10.9868    -11.0454      4.1309
H      6.2447      4.8634      5.8952
C     22.7506     -5.2468     12.9512
O     27.7606     -2.3435     12.2751
C     28.9927     -4.2711     20.3206
C      3.5494      1.1663      9.3131
C      3.2362      1.6994      4.5798
H     -1.7747     10.0365      2.0389
H     31.8959     -0.4290     19.2177
H      3.9006      5.8170      0.0718
C      3.8318      3.3514      3.0179
H      8.6542     -2.7233      5.1134
C     -2.3308      8.5076      0.7782
C     23.8493     -5.9939     11.9033
C      5.3060      2.9412      5.0801
H     30.7616      0.0399     17.6560
H      8.2251      3.4267      2.5348
H      9.1303      1.1253      8.2108
C      3.0417     -0.9195      8.2893
C      5.5436     -1.6235      7.7248
C     10.8376     -8.1501      2.9994
C     29.1493     -2.9949     19.4681
C      2.5582      3.6226      2.4169
H      2.4580     -1.0145      7.3361
H     28.9489     -5.4678     13.6928
H     10.3311     -8.9476      0.7699
H     25.9839     -3.7450     11.3237
H      1.9476      3.3441     -0.8921
O      5.4976      7.1552      6.8340
C      0.4944      7.9012      4.5415
H     29.5324     -2.4115     20.0491
C     10.4299     -4.3278      3.5653
C     10.9738     -5.4139      2.7705
C     -3.1699      6.9467      7.5052
H      1.3885      2.2331      4.9845
H     27.8703     -5.5480     11.1934
H      6.8410      2.3663      2.0778
C      3.6760      1.7809      1.0184
C     -0.0808      8.5303      1.8987
C     11.9113    -10.2537      1.5250
C      0.0353      3.7311      3.7922
C      7.8327     -1.3565      7.1595
H      0.9300     -0.1391      3.8994
H     -4.2661      7.1131      7.2757
H     28.0243     -2.7446     18.9999
H      0.9428      6.1851     -0.6270
O      0.3432      9.1535      6.2736
C      6.7001     -0.6244      7.4782
C      0.2551      6.7338      6.7335
C     27.9903     -5.3114     14.1115
H     28.5582     -3.8381     16.2210
C      0.4988      7.5473      3.0060
H      9.0622      0.3963      9.4813
C      2.4124      0.9237      3.3255
C      0.2789      2.4670      7.1556
C     10.6243     -2.5487      6.8040
C     10.4780    -10.1282      4.5451
C     31.2590     -0.8354     18.0803
C      3.3781      3.5887      9.8959
C     13.2717     -9.9189      1.3859
C     -1.2708      7.8771      1.4678
C      4.4611     -0.7268      8.0404
N      1.7282     -0.2650      3.4172
H      3.5651      0.2864     -0.6672
C      2.9956      1.1268     -0.4426
O     29.9765     -6.5883     16.1348
C      9.3432      6.5979      1.0791
H     31.1192     -3.5017     19.4004
C     10.9236     -9.2936      1.9563
C     -3.0723      7.3544      8.8769
H      2.0837      1.0801      6.1867
H      7.2012      5.0848      0.9107
C     -2.4824      9.7202      1.1450
H      1.7978      6.6053      9.6295
H     10.2848     -7.3689      6.0858
H     -1.0851      9.6019      4.4562
H     27.0124     -4.4648     10.3364
H      3.1027      1.7203     -1.3992
H      0.4347      2.9822      9.0935
C     27.8555     -5.3808     15.5651
H     17.8041     -7.2467     10.4206
C     27.4268     -4.6418     11.2871
H      2.5925      3.2189     10.8830
H     29.9410     -1.4819     15.8827
C      4.1850      8.5242      4.6757
C      7.7871      7.6419      3.0395
C     33.1905     -2.2738     13.6958
C     31.8067     -4.0062     15.1831
C      4.2023      6.2211      6.5743
C      1.8001      4.8776      2.2485
C      5.7502      6.2818      0.7795
C      5.5697      7.8284      4.5859
C      7.9830      7.2550      1.4414
C     17.0811     -7.7883      7.6013
C      1.8217      5.0971      0.8937
H      7.8413      8.9373      5.9070
C      6.1138      7.8520      5.7737
H      9.3768      5.6916      0.5434
H     13.2908     -9.5008      2.6388
C      6.9143      5.9966      1.5471
H     -0.9190      3.6945      3.4105
O      7.5710      7.9794      6.1396
H     21.4838     -3.4697     11.8273
H      1.8746      1.6573      2.7609
H     -0.3342      9.4726      2.5313
H      4.2263      5.1103      1.2891
H      4.5890      5.3745      4.5930
C     25.0367     -5.1402     11.7297
C     28.7593     -6.3306     16.2271
H      0.2948      6.6206      9.5050
C     10.9521     -8.6533      4.3374
C     13.2266     -6.3733      5.2433
H      3.4119     -0.4225      6.1824
C     14.2816     -7.3307      4.6384
H      3.2473     -0.2390      1.5295
H     -1.0356      6.5856      8.3478
C     -4.8282      6.0627      9.1448
C      4.5882      0.8920      8.1979
O      6.0070      4.2450      5.1751
C      6.4004      8.0289      3.2660
C      9.5122     -3.1838      5.8190
C     -0.0455      6.2078      2.6155
C     11.5194     -6.6914      3.3266
H     29.8845     -4.3595     21.1019
H     27.9052     -3.7667     11.6546
H     26.8233     -2.3847     12.1475
H     10.9047    -10.3002      5.4768
C      2.4772      0.3664      8.7589
C      0.6433      5.1037      3.3024
C      5.0955      3.5747      2.3836
H      1.4018      4.2817      7.7474
H     10.4965     -1.6808      8.7228
H      7.6104     -2.2882      6.6793
C      1.1071      6.0775      9.0095
C     11.0253     -7.7501      5.5401
C      3.5420      0.8049      2.0519
C     14.6230     -8.4524      5.4421
C      1.3614      6.1630      7.4585
C      2.3043      3.9530      0.1487
H     -1.3847      5.8085      1.0545
H      4.7596      2.2747      1.0671
H      2.1384      0.7731     -0.1174
H     11.3844     -3.4978      7.1653
H      5.0452      1.2506      3.8444
C     -0.5698      8.8219      5.2601
C     -4.0304      6.9260      9.7994
H      6.0945      7.3442      2.5574
H     32.7355     -2.0059     12.4821
C      8.8912     -0.9508      7.8928
H      9.9812      6.5139      2.1080
H      9.8242     -2.8458      4.8288
H      5.9887      1.8058      9.4017
C     -0.7841      7.1561      7.4095
C      0.7442      3.3041      5.1638
O      8.3408      6.1156      4.8564
C     -1.6851      7.7094      5.4724
C      6.2404      2.4861      7.3594
C      5.2179      2.2846      6.3479
C      3.4449      0.8219      5.7961
H     -5.2205      7.2343      8.6535
H     17.3685     -8.6808      9.2844
H      0.9201      9.8230      5.8278
C      1.8210      4.8270      7.0059
H     11.6350    -10.9379      0.6404
C      3.8917      5.5863      5.2173
C      2.9265      2.6624      8.9430
H     32.8219     -1.8407     14.5630
C     21.0995     -5.4673     10.9638
H     23.4752     -6.4411     11.0827
H      6.7909      3.2618      7.7864
C      3.8377      2.9766      4.5984
C     30.4192     -3.2746     18.6742
C      7.0019      0.3317      8.5067
C     18.2286     -8.1693      8.5791
C      6.0722      1.4259      8.3802
H      0.0462      1.2150      9.1714
H     -2.1121      7.7753      9.3463
H     13.5542     -9.0998      0.6448
H     31.6130     -3.3382     13.2171
H     13.8692    -10.8209      1.1662
C     27.4521     -3.1644     13.8208
H      3.0560      4.6037      9.8193
H      9.9985     -3.5565      2.6709
