249

C     19.5768      9.0407     14.0581
C      3.9954      1.6326      7.0703
C      2.8574      3.3903      1.0148
C      6.6820      5.2357      2.9703
C      7.5436      3.9541      3.0561
C      3.2195      4.3194      5.4732
C      7.0243      9.4385     10.4978
C     15.9339      7.1663     19.3695
C      6.0755      2.0773      4.2559
C      6.4316      8.0486     10.1001
C     13.8780      8.5453     13.4713
N      0.0337      3.2031      6.2217
C     13.5568     -6.9327      0.7497
C      3.2981      4.2333      7.1892
H     13.4993     -6.7668     -0.3371
C     15.6357      6.2027     17.3733
C     16.6344     10.9559     16.6211
H      1.1130      0.5202      9.3545
H     -1.3972      1.9550      4.9666
H      5.9232      5.3372      3.8891
H      5.4399     10.5434     10.8343
C     16.6856      9.6150     16.2816
H      8.0172      9.0191     10.2222
H      8.1836      3.9067      3.7716
H     -0.7370      5.3086      6.4704
C      3.1323      2.7998      7.5950
H      9.1728     -3.2098      0.2484
H      7.0492      1.7333      4.9152
O     15.0049     10.6118     14.6416
C      8.4207      0.6579      8.1895
H     15.7219     -7.9955     -0.5467
C      7.0668      5.7169     10.1497
H     15.4504     -7.3517      8.7100
C      6.3895      2.6228      3.0626
H      6.0779      5.5170      7.1902
H      7.1510      9.5427     11.5609
H      5.2538     -2.5899      7.6265
H      4.9458      7.2264      8.9335
C     17.3639     11.0352     17.8395
C     10.0854     -4.5016      5.1957
O     14.7604     -4.4291      4.9503
C     11.3505     -5.3259      7.2584
C      8.6538      8.0410     12.4046
C     20.2746      8.0859     13.1812
C      6.2560      7.4410     -0.6303
H      5.1193      3.9670      1.7952
H     17.4262     10.3265     14.0559
H      1.7813     -0.1676      2.5841
H      8.3805     -7.1726      7.8765
C      7.0499      6.9468     11.1011
C      7.7917      6.1952      3.5534
H     21.3480      9.9186     14.7435
C     -1.1482      6.4362      5.1079
H     16.0234      8.4607     21.3024
H      4.8488      0.9039      2.3659
H      6.7667     11.4919     10.9939
H      4.1605      7.1764     -0.1372
C      9.9637     -0.8116      7.0942
C      5.8391      5.2510      9.6065
C     15.9777      7.7257     17.9614
C      4.4921      6.4060      0.2681
C     17.5245      9.4415     15.0575
H      9.0023     -5.0901      5.4775
H      8.3422      8.4108      3.2899
H      3.2833      1.0154     10.4881
H      6.8860      0.0936      9.8899
H     18.3950     12.6546     17.3976
C     -0.3632      3.2719      8.5063
C     13.2718      8.3482     12.1093
C      1.7378      2.1796      7.2986
C     12.4026     -6.5746      1.3521
H     -3.0130      2.6995      5.2055
H      5.8353      4.5660      5.6482
H      6.3633     11.3607      9.5340
C      9.7964      7.4579     13.1135
O     14.9705     10.9808     12.3935
C     16.3169      8.5214     20.2874
C      3.1786      1.1345      9.3550
C      3.2226      1.8497      4.4901
H     10.4811     -2.2998      1.4558
H     18.9662     11.7950     19.3909
C      4.0398      3.6782      3.2539
H      8.7352     -3.1971      5.9886
C     10.5339     -4.3754      1.0324
C     10.8680      7.2660     11.9891
C      5.2729      2.8665      5.1219
H     17.4786     13.1478     18.9612
H      7.9470      3.8387      2.1581
H      8.6070      1.6716      7.5650
C      2.5963     -0.7882      8.0606
C      5.0884     -1.6246      8.0298
C     -1.7204      4.9356      3.4351
C     16.1829      9.8058     19.5220
C      2.8081      3.9878      2.3509
C      5.0805      8.0702      9.5359
H      2.2398     -1.3434      7.2850
H     15.9016      9.0906     14.0068
H     -2.8805      4.9913      1.6699
H     14.8074     -9.0186     -0.9685
O      5.2045      7.0581      6.3521
C     13.5110     -5.0879      4.5037
H     16.5560     10.3072     20.1798
C     10.3464     -4.5462      3.7647
C     11.1979     -5.3573      3.1158
C     10.0032     -5.3585      7.8683
H      1.5948      2.2786      4.8730
H     14.0819      6.9394     10.9985
H     -1.1556      2.3680      8.5925
C      3.7293      2.1984      0.6734
C     13.0145     -4.3091      1.9102
C      0.0368      3.7105      3.9932
C      7.4632     -1.7169      7.4268
H      1.2147      0.0917      4.0844
H      9.2748     -4.9579      7.2093
H     15.3539      9.7473     18.8683
H     15.3833      7.2833     13.2213
O     13.3113     -3.5703      6.4053
C      6.3545     -0.9548      7.9309
C     13.5354     -6.1903      6.7207
C     15.2511      8.1201     13.8966
C     13.8539     -5.2611      2.8707
H      8.9642      0.5524      9.0931
C      2.6049      1.5702      3.2634
C      0.5462      2.9419      7.3536
C     10.3541     -2.2461      6.5621
C     -2.0930      2.7417      4.6373
C     18.0413     12.2062     18.4259
C      3.5244      3.6089     10.0983
C     11.6770     -5.1208      1.7146
C      4.0681     -0.6842      8.1709
N      2.0135      0.2672      3.4602
H      2.2352      1.5509     -0.3940
C      3.3354      1.4614     -0.3018
O     17.2144      6.1327     15.6997
C      9.0842      6.5695      1.1931
H     18.6493      9.7510     19.1175
H      1.5653      1.2486      7.9550
C     -2.4165      4.3044      2.2632
C     10.1051     -5.5180      9.1856
H      7.0961      4.9424      0.8369
C     10.1947     -3.1617      0.7664
H      4.9455      9.3062      9.5978
H     15.0423     -5.5176      9.3133
H     -2.5617      4.9920      5.7807
H     12.4985     -3.4596      4.4766
H     14.6241      8.6873     10.2005
H      3.8364      0.3240     -0.5009
H     -0.7842      4.2719      8.1650
C     15.1698      7.6707     15.3180
H      4.9998      5.0155     10.1553
C     14.4150      7.9990     11.2236
C      6.4129     10.6706     10.3121
H      3.3165      3.9728     11.1308
C      4.1922      8.7585      4.6818
C      7.5462      7.5308      2.9648
C     20.2873     10.3582     14.5426
C     18.4724      8.4922     14.8330
C      4.2381      6.2333      6.5169
C      1.9702      5.0421      2.5917
C      5.7785      6.3676      0.3491
C      5.3476      7.7686      4.1890
C      7.6935      6.9717      1.4263
C      4.2357      5.3034      7.6917
C     14.5463     -7.6447      1.1722
H      9.2960      5.3896      4.0420
C      6.1115      7.2901      5.3843
H      9.1397      5.8153      0.6482
C      6.8212      5.8833      1.3558
H     -0.5364      3.2940      2.9960
H     10.8645     -6.1612      9.5128
O      7.3471      7.1472      5.7929
H      8.9019      9.0449     12.0839
H     12.5461     -3.1381      2.2198
H      3.6269      5.8718      0.5705
H      4.8524      5.4920      4.3709
C     12.2433      7.5692     11.8067
C     15.7392      6.2918     15.7916
H     13.6050     -6.0953      8.9497
C     -1.3907      4.0311      4.6448
C      0.3772      6.5846      5.1925
H      4.1453      8.2723     10.2882
H      2.6741      0.1510      5.9205
C      1.4220      5.6398      4.5863
H      3.5539      0.0417      1.7371
H     12.0699     -6.5626      8.5890
C      8.0716     -6.9815      9.1775
C      4.3212      0.8380      8.2762
O      6.3334      3.8993      5.2899
C      6.1353      7.9879      2.9889
C      9.6070     -3.0064      5.4947
C     12.9460     -6.6106      2.8384
C     -1.4436      6.3531      3.6805
H     17.3944      8.2748     20.3786
H     15.2805      8.4116     11.6539
H     -2.5853      2.5474      3.7270
C      2.0088      0.2938      8.7623
C      0.6984      5.0453      3.4848
C      5.1310      3.3059      2.5539
H     14.2783     -8.6540      8.0845
H     10.7083     -0.7225      7.9535
H     15.6633      9.7718     14.5065
H      7.4021     -2.5590      6.7346
C     14.9025     -6.4654      8.8100
C     -1.4362      5.0265      5.6794
C      3.6944      1.2568      1.9635
C      1.8279      4.5345      5.5793
C     14.9280     -6.5251      7.2753
C     15.0842     -8.5918      0.1158
H     11.5825     -7.0884      0.8958
H      4.6868      2.5799      0.4794
H      3.4934      2.2726     -0.8814
H     11.5576     -2.1270      6.1547
H      5.7311      1.1961      4.0636
C     12.5174     -4.2884      5.1900
C      8.8347     -6.1284      9.8522
H     17.5374      5.9640     14.7111
H     20.4748     10.9220     13.3941
C      8.5650     -0.8824      7.2908
H      9.9660      6.5818      2.0801
H      9.5623     -2.2105      4.8355
C     12.3752     -6.1231      7.6216
C      0.8547      3.0533      5.1790
O      8.6540      5.8613      4.5455
C     11.2917     -5.0559      5.8706
C      6.3422      2.2294      7.3674
C      5.3918      2.2035      6.4598
C      3.2474      1.1324      5.7267
H      5.5025      3.6763      8.0670
H     12.5856     -3.0088      6.1088
C     14.7845     -8.0549      7.1727
H     -1.5435      3.5930      1.7471
C      3.9898      5.6878      5.2090
C      3.1823      2.6563      9.2787
H     19.7014     11.3555     15.2530
C      8.4426      7.3405     11.1126
H      4.0053      6.1854      8.4049
H      7.4053      2.6845      7.2332
C      3.9229      3.1156      4.6708
C     17.3310      9.8583     18.6948
C      6.9298      0.2011      8.6584
C      5.6699      4.7512      7.9695
C      5.7864      1.2030      8.4067
H     -0.0297      3.3833      9.7872
H     10.5311     -4.8418      9.9000
H     10.0377     -0.2568      6.2354
H     18.8302      9.6762     13.3670
C     14.3253     10.4279     13.3988
H      3.5732      4.4805      9.4488
H     10.4889     -3.3995      3.4595
