262

C      6.6547      9.0500      0.8655
C      4.1000     14.5611      7.1301
C     15.7870      3.2551     14.3390
C      7.0156     17.8298     15.4347
H     10.3615      3.3142      3.0374
C      7.1929     16.4663     15.8149
C      3.1148     16.9180      5.6009
C      6.7619     22.6126     10.5948
C      3.3345     20.2118      6.5038
C      6.1350     15.0104     17.2370
C      6.3474     21.5223      9.7865
C     13.8830      8.8242     13.7735
N     12.7706      3.1177      6.0609
C     13.5820      5.8415     13.4125
C      3.1547     17.0104      7.0900
H     13.5688      6.1861     12.5032
C      2.7054     19.2939      4.4647
C      3.7894     10.8213      3.5674
H      1.0344     13.8734     22.4239
H     10.1491      2.7563      3.7451
H     17.1585      7.4988     16.1944
H      5.9418     24.1299     12.0383
C      3.9004      9.4190      3.3174
H      7.6886     22.9199     10.3476
H      7.6794     16.7116     16.8521
H     12.7408      6.6744     10.9603
H     12.1536      4.9060      6.3509
C      3.0358     15.5031      7.5965
H      9.8321      9.8597     13.3078
H      7.1192     14.6889     17.6865
O     14.5861     10.6930     15.4370
C      8.3353     12.6136     21.5882
C      6.6983     19.3424      9.4521
H     13.8945      6.8865      9.0628
C      6.1733     15.4840     15.8760
H      6.5477     18.0801      7.3622
H      7.2462     22.3570     11.4853
H      4.6753     10.4149     20.9170
H      4.4782     20.5311      8.6287
C      4.1743     11.1338      4.9332
C     10.0704      8.4856     17.8644
O     14.7674      8.6301      4.8725
C     11.3656      7.5964      7.0216
C      8.8778      8.0275     12.0368
C      7.1889      7.9232      0.1985
C      5.9568     20.0800     12.1646
H     18.1649      3.9247     14.6822
H      4.4049      9.8806      1.0985
H     15.6997     -0.6740     17.2804
H      8.5752      6.1803      8.0029
C      6.6369     20.2144     10.8212
C      7.7002      5.9627     16.3306
H      8.6311      9.3086      1.3884
C     11.8481      6.5403      4.9957
H      3.3498     21.5474      8.3678
H     17.7242      0.4380     15.1878
H      5.1862     23.9759     10.0584
H      3.7450     19.3584     12.7397
C      9.7663     11.9591     19.6734
C      5.6688     18.5637      9.3240
C      3.1652     20.5474      5.1199
C      4.2438     18.7981     13.6226
C      4.3247      9.1733      1.8888
H      9.6919      7.4631     18.1513
H      8.4195      7.9306     15.6095
H      3.8478     14.3052     23.6366
H      6.6430     12.1111     22.9565
H      4.8406     13.2286      4.0872
C     13.0054      3.0224      8.5121
C     13.1970      8.1561     12.2736
C     14.7299      1.8615      7.1200
C     12.3856      6.1313     14.2317
H      4.9209     20.2477     12.1653
H     10.5182      2.9341      5.7247
H      5.8520     17.3209     17.1747
H      4.6402     23.5096     11.4105
C      9.9330      7.2240     12.8408
O     14.9903     10.9460     13.3745
C      6.7217     21.5656      8.2485
C      3.4286     21.5182      7.1580
C      3.5516     14.2311     22.4772
C     16.2677      1.6231     17.6856
H     11.1944     10.2008     14.1333
H      6.0108     12.9800     20.1864
C     17.0433      3.7866     16.4418
H      8.7729     10.3406     17.9286
C     10.8301      8.1047     13.6348
C     10.9011      6.4967     12.0355
H     10.5232      9.9993     20.2907
C      5.2748     15.8188     18.2423
H      5.7192     12.3751      5.3405
H      8.2140     15.7511     15.7641
H      8.8441     13.4792     21.3366
C      2.3637     12.3638     21.6525
C      4.7776     11.4203     20.8490
C     10.7275      5.1363      3.1990
C      3.2274     22.8587      6.6180
C     15.8252      3.8080     15.6771
C      4.5579     21.3095      9.4561
H      1.7126     11.5981     21.3689
H     10.0607      4.6988      1.0463
O      5.6680     19.2830      6.1657
C     13.5450      7.9549      4.4158
H      3.2885     23.6314      7.4170
C     10.3253      8.5389     16.4059
C     11.0276      7.5965     15.7729
H      5.8128     22.1922      7.7162
C     10.3068      7.6948      7.7044
H     14.9336      7.5365     11.7631
H     13.9532      3.1459      9.1012
C     16.6118      1.9941     13.9499
C     12.9396      8.6617      2.0340
C     12.7396      3.9193      3.7337
C      7.0995     11.6356     19.6203
H     14.2271      0.2502     17.1896
H      9.2089      7.7347      6.9713
H      2.2395     23.1300      6.4859
O     12.9129      9.5688      6.4362
C      6.1280     11.8530     20.6455
C     13.5871      6.9905      6.8052
C     15.0188      7.8787     13.9982
H     15.5118      8.6638     16.1658
C     13.5747      7.6847      3.0523
H      8.5103     11.9550     22.6835
C     15.7842      1.0723     16.2488
C     13.5702      2.7133      7.3020
C     10.2842     10.6244     19.3418
C     10.3224      3.3636      4.7156
C      4.7491     12.5345      4.9990
C      2.8928     16.5418     22.7599
C     11.8969      7.6283     14.4395
C      3.9504     12.3730     21.2723
N     15.0416     -0.2410     16.7387
H     15.8286      2.2446     12.3714
C     16.2635      1.3495     12.6854
O     17.0933      6.4775     15.6014
C      9.0857      6.5406     13.7682
H      5.3688     22.8976      6.2433
H     14.6826      0.7618      7.4687
C      9.9293      4.3628      2.3656
C     10.0370      7.8730      9.3258
H     15.2792      2.1731      5.9462
H      7.2719     17.5828     13.1304
H      8.1067     22.9748      7.1494
C     10.8062      9.4228     13.5069
H      4.2197     22.2826      8.8857
H     15.3941      6.0152      9.3240
H     10.3281      5.2120      6.3346
H     12.0539      9.9128      4.4335
H     13.7599      8.1103     10.6118
H     15.3246      0.6098     12.5031
H     12.2084      2.1478      8.6959
C     15.0270      7.5832     15.5269
H      4.3979     18.7669      9.3680
C     14.2831      8.2644     11.4499
C      5.7075     23.5427     10.9628
H      2.9051     16.3968     23.7954
H      3.9052     11.6320      2.8883
C      4.1739     21.5886      4.6095
C      7.4914      7.2512     15.4592
C      7.8300      9.6813      1.8319
C      5.5913      8.4202      1.8424
C      4.3084     19.0040      6.3842
C     14.9226      4.9229     15.4227
C      5.5199     18.9684     12.9920
C      5.5574     20.7999      4.1327
C      7.7333      6.8563     13.9978
C      4.3182     17.9086      7.5664
C     14.4666      4.9510     14.0109
H      9.3062      5.6223     17.0911
C      6.2842     20.1568      5.1486
H      8.9044      5.4964     13.2109
C      6.7875     18.3533     13.9846
H     12.6658      3.5431      2.7932
H     10.9636      7.7345      9.6202
O      7.3649     20.6401      5.4571
H      9.4961      8.9233     11.7977
H     14.7643      1.5971     16.2360
H     12.3802      9.4850      2.5730
H      4.3799     17.9244     14.3605
H      4.3327     18.1249      4.1386
C     12.0914      7.3341     11.7041
H      7.0229     17.2176     18.8150
C     15.7429      6.5111     15.8679
H     15.3982      7.7176      9.3090
C     11.2800      4.3385      4.5095
C     13.3477      6.7304      5.3276
H      3.5869     21.0992     10.1041
H      2.9146     12.7570      6.3233
C      1.3870     18.6949      4.7831
H     16.1831      0.0050     14.6960
H     12.1372      6.1884      8.6561
C      7.9740      6.3991      8.8657
C      4.4721     13.9004     21.3857
O      6.0786     17.1415     18.0831
C      6.3113      8.0307     15.9680
C      9.6777      9.9283     18.2446
C     12.9987      6.3045      2.9594
C     11.5301      6.3420      3.4770
H      4.4337     21.9218      7.0571
H     14.9929      9.0563     11.2936
H      9.5096      4.1785      4.9182
C      2.2685     13.5703     22.3261
C     13.8437      5.3104      3.3268
C     17.9030      3.3393     15.5623
H     14.2894      4.5290      8.0391
H      8.8680     21.6725      7.7580
H     10.0340     12.0452     20.7629
H     14.2222     11.5866     15.4176
H      7.0022     10.6528     18.9836
C     15.0761      6.8824      8.7312
C     11.3385      5.2991      5.6401
C     16.7913      0.9861     15.1166
C      1.6878     17.4800      5.4954
C     15.0620      6.7192      7.2722
C     15.2165      3.8796     13.3065
H     11.7942      5.2185     13.9120
H     17.6637      2.2659     13.7972
H     17.2155      1.4863     11.9183
H     11.2063     10.9503     18.8143
H      5.8452     13.9313     17.1544
C     12.3668      9.0418      5.1378
C      8.8513      7.3885      9.9014
H      5.4322      7.4150      1.3898
H      7.7752     10.7157      1.4689
C      8.3539     12.0032     20.0417
H      9.3975      6.5244     14.8421
H     10.2971     10.5154     17.5823
H      6.5735     14.6351     22.2105
C     12.3423      7.0899      7.7607
C     13.7460      3.3412      4.9639
O      8.4075      5.6155     17.4591
C     11.3827      7.9372      5.3930
C      6.4394     14.8833     20.2790
C      5.3318     15.0841     19.4639
C      3.8911     13.4509      5.7669
H      6.6374     20.5606      7.6841
H      5.9528     16.7813      8.1561
H      8.2358     23.1011      8.6251
H     13.5721      8.9869      6.8979
C     14.8783      5.0445      7.0679
C      3.7088     18.3351      5.0646
C      3.0329     15.5841     21.9637
H      7.4101      9.5975      2.8673
C      8.2194      7.2154     11.0893
H      3.7545     18.4933      8.3663
H     10.1461      5.8616     11.1922
H      7.0962     15.6735     20.1196
C     16.8535      2.9691     17.6753
C      4.2798     22.7945      5.6792
C      6.7810     12.5430     21.8279
C      7.9476     22.1303      8.0384
C      5.8155     17.8881      8.0420
C      6.0717     14.0220     21.4393
H     12.5078      3.9033      8.3262
H     10.2872     12.6141     19.0568
H      6.0949      9.7771      0.2568
H      7.5475      6.2049     11.6055
H     12.0096      3.7522      5.7038
C     14.5434     10.1750     14.2639
H      2.5986     17.4042     22.1955
H      9.9124      9.1715     15.8486
