261

C     19.7260      9.4419     13.7891
C      4.1985      1.4851      6.9103
C      3.1901      3.4400      1.1329
C      6.9944      5.1718      2.6727
H     -2.0684      3.3023      2.2539
C      7.4947      3.8247      3.0585
C      3.1973      4.2097      5.3879
C      7.0175      9.4585     10.5158
C     15.9782      7.1280     19.3281
C      6.2234      2.1864      4.1634
C      6.4598      8.3352      9.8268
C     13.6232      8.8644     13.7583
N     -0.2038      3.2019      6.2719
C     13.4815     -7.0020      0.4369
C      3.3122      4.2019      7.0117
H     13.7442     -6.9008     -0.5593
C     15.7226      6.2224     17.3866
C     17.2586     10.9150     16.3605
H      0.8616     -0.4279      8.8936
H     -2.4170      2.6493      5.5495
H      6.6881     11.4245     10.6569
C     16.7997      9.4693     16.0572
H      8.1032      9.5859     10.5063
H      7.7241      3.8407      4.1826
H     12.7058      7.0825     10.9334
H     -0.7364      5.1554      6.2587
C      3.0013      2.8280      7.3834
H      9.6200     -3.0118      0.8650
H      7.2819      1.8404      4.1617
O     14.8637     10.6942     15.1254
C      8.2506      0.1721      8.5884
C      7.1068      6.1645      9.7211
H     14.7654     -7.4407      9.4251
C      6.5139      2.8341      2.9354
H      6.5352      5.2232      7.5407
H      6.7139      9.5254     11.5913
H      4.8587     -2.5717      8.0449
H      4.4177      7.2260      9.4452
C     17.3113     11.0662     17.7017
C      9.9583     -4.5270      4.9199
O     14.8348     -4.3041      4.7454
C     11.2949     -5.6193      7.0200
C      8.8152      8.4412     12.4116
C     20.3009      8.2060     13.3533
C      6.3231      7.4021     -0.6818
H      5.2898      3.9249      1.2545
H     17.1549     10.1228     14.2028
H      1.0355      0.1510      4.1243
H      8.6958     -7.3917      8.3726
C      6.8768      7.0867     10.8948
C      7.7679      6.2380      3.6163
H     21.0232      9.6237     15.3748
C     -1.1430      6.5306      4.9728
H     14.6801      8.3928     20.4293
H      4.6444      0.9994      2.4799
H      5.4466     10.2132      9.6490
H      3.8102      6.2681     -0.2339
C      9.7801     -1.4910      7.3668
C      6.0346      5.3099      9.3344
C     15.8707      7.7113     17.8137
C      4.6136      5.8069      0.3586
C     17.4063      9.1619     14.8324
H      9.3635     -5.4250      5.2904
H      7.9559      8.0325      4.0103
H      3.0267      0.9845     10.1703
H      6.7839      0.0981     10.2031
H     17.3750     13.1368     18.1207
C     -0.2730      2.6620      8.6984
C     13.1643      8.4190     12.3597
C      1.5614      1.9689      7.0363
C     12.4014     -6.4903      1.3989
H      5.1581      7.7480     -0.7711
H     -3.3513      3.4412      4.1804
H      6.0417      4.6841      4.5221
H      5.3053     10.3827     11.4582
C      9.8621      7.7796     12.9470
O     14.8458     10.9637     12.6756
C      6.9594      8.1129      8.5255
C     15.7623      8.5788     20.2274
C      3.1912      1.1512      9.1007
C      3.4451      1.8425      4.5753
H     11.6166     -2.2752      1.3892
H     18.9507     12.4273     18.2280
C      4.1155      3.9557      3.3245
H      8.2259     -3.7776      6.0327
C     10.8651     -4.4848      0.6223
C     10.8908      6.9153     12.0785
H     10.4128     -3.6624      7.1869
C      5.5574      3.0370      5.4108
H     17.7780     11.6502     19.4105
H      8.4753      3.6396      2.5162
H      8.7187      0.9426      7.6278
C      2.6105     -0.7826      8.2410
C      5.0406     -1.5305      8.1002
C     -1.8949      5.1983      3.2013
C     16.0187      9.7791     19.4008
C      2.9081      3.9363      2.4550
C      4.9651      8.0721      9.7190
H      1.9334     -1.7159      8.4085
H     15.7415      8.2418     13.6498
H     -2.4722      4.9034      1.1370
H     14.9828     -9.3449     -0.8557
O      5.2120      7.0411      6.4926
C     13.5680     -4.7118      4.5994
H     15.9351     10.6820     20.0691
C      9.8862     -4.9680      3.5511
C     11.0225     -5.3506      2.9499
C     10.0885     -6.0313      7.5066
H      1.0580      2.6025      4.9510
H     14.1911      8.3057     10.4695
H      6.5761      2.3606      2.0173
H      0.8339      2.0176      9.0383
C      3.6470      1.7477      1.1235
C     12.7557     -4.1448      2.2327
C     -0.0175      4.0558      4.0532
C      7.2973     -1.4306      7.2345
H      1.8727     -0.4683      3.0354
H      8.9780     -5.7148      7.3015
H     14.5513      7.2697     13.1686
O     13.0746     -3.4197      6.4160
C      6.3592     -1.0316      8.1611
C     13.4434     -6.0690      6.8191
C     14.8261      7.7516     14.0703
H     15.4448      8.5938     15.7878
C     13.5732     -5.1920      3.0464
H      9.3158      0.4593      9.0063
C      2.5103      1.4645      3.3830
C      0.3731      2.7872      7.3905
C     10.1543     -2.6932      6.4464
C     -2.4485      3.1379      4.5491
C     17.8876     12.2112     18.5131
C      2.8123      3.5461     10.0327
C     11.6532     -5.2864      1.6103
C      3.9268     -0.9298      7.9286
N      1.8328      0.2867      3.7275
H      1.6879      0.8491      0.6785
C      2.8234      1.3531      0.1294
O     17.0433      6.6756     15.2311
C      9.4016      6.7908      0.9359
H     17.9199      9.8331     19.3041
H      1.7082      1.2350      7.8305
C     -2.1486      4.4814      2.0653
C     10.3699     -5.8145      8.9549
H      1.8912      1.4363      6.2137
H      7.6937      4.9887      0.2732
H      8.9395      8.5549      7.7961
C     10.7306     -3.0310      0.7444
H      4.6376      8.6393      8.8963
H     15.7208     -6.0763      8.8674
H     -2.6422      5.6322      5.9120
H     11.8511     -3.1400      4.6442
H     14.1162      9.8192     11.7394
H      3.4878      0.9114     -0.7567
H     -1.1435      2.0892      8.3542
C     14.8315      7.5681     15.3796
H      5.4312      5.4019     10.0946
C     14.3585      8.6984     11.5379
C      5.9935     10.5462     10.5313
H      1.8196      3.0834     10.7819
H     16.5228     11.3149     15.5408
C      4.1374      8.5828      4.6144
C      7.5541      7.6286      3.0836
C     20.4692     10.2397     14.6317
C     18.8245      8.9291     14.8356
C      4.1418      6.1825      6.4314
C      1.8061      4.9178      2.5227
C      5.9205      6.0486      0.2528
C      5.4553      7.8628      4.2865
C      8.0493      7.1604      1.3708
C      4.2557      5.1008      7.6460
C     14.3398     -7.9233      1.0662
H      9.4577      5.0990      4.6473
C      6.2104      7.1774      5.5003
H      9.3107      5.8169      0.2440
C      7.3053      5.8387      1.0339
H     -0.0799      3.4633      3.1909
H     11.0831     -6.0197      9.7299
O      7.5175      6.9728      5.8923
H      8.6145      9.4405     12.3405
H      2.4070      2.5608      3.0867
H      4.0276      5.3986      1.2647
H      4.5517      4.9028      4.4189
C     12.1605      7.4830     11.9952
C     15.6471      6.3614     15.8931
H     13.9270     -5.7548      9.0756
C     -1.6131      4.4379      4.3631
C      0.4070      6.7864      5.2707
H      4.4329      8.2812     10.7554
H      2.5447      0.2574      5.2882
C      1.4628      5.7504      4.7617
H      3.1776     -0.1633      2.2969
H     12.7372     -6.5266      8.6786
C      8.5290     -6.8209      9.2453
C      4.2820      0.7177      8.1699
O      6.2391      4.2293      5.4221
C      6.0792      7.8577      2.9172
C      9.0956     -3.0984      5.4665
C     12.8923     -6.5016      2.8258
C     -1.3434      6.4742      3.5419
H     16.4672      8.3957     21.0821
H     15.1959      8.2840     12.0107
H     -2.7173      1.9274      4.3458
C      1.8993      0.3118      8.7269
C      0.9076      5.2460      3.6095
C      5.1560      3.8686      2.5555
H      8.8432      9.0118      9.3515
H     10.3937     -1.1216      8.3782
H     15.1013      9.8220     15.6292
H      7.0148     -2.3253      6.2617
C     14.5768     -6.4981      8.7467
C     -1.6232      5.3396      5.6351
C      3.3648      0.9049      2.4024
C      1.7329      4.4318      5.4199
C     14.6665     -6.7010      7.2942
C     15.1032     -8.9790      0.2238
H     11.5634     -7.2356      1.5178
H      4.7375      1.5525      1.0925
H      2.4101      2.3832     -0.1199
H     11.2125     -2.6682      6.0993
H      5.4253      1.4304      4.2683
C     12.4652     -3.9724      5.2139
C      9.2536     -5.8172      9.8861
H     17.0104      7.1419     14.1895
H     21.3259     10.5025     14.1640
C      8.4738     -1.0938      7.8285
H     10.0512      6.4465      1.6225
H      8.2146     -2.8811      4.9592
H      5.5760      1.7709      9.6914
C     12.5058     -5.9112      7.8560
C      0.6990      3.5289      5.2277
O      8.7059      5.5091      4.2169
C     11.4310     -4.9734      5.6783
C      6.1446      2.0948      7.7249
C      5.5070      2.0717      6.5079
C      3.4387      1.0640      5.5872
H      6.9163      7.3094      7.5741
H      5.5711      3.7878      7.5202
H      8.2125     10.2657      8.0863
H     12.3144     -3.3806      7.0203
C     14.7000     -8.1398      6.8928
C      3.8030      5.5678      5.1602
C      3.1743      2.6476      8.8982
H     19.9187     10.8859     15.4433
C      8.2833      7.2913     11.2906
H      4.1004      5.2516      8.9205
H     10.4010      6.0851     11.5683
H      7.1560      2.4801      7.7203
C      3.9824      3.1558      4.6811
C     17.1445      9.8070     18.4435
C      6.7517      0.1842      9.0527
C      8.2216      9.0173      8.3869
C      5.6007      4.7764      8.0174
C      5.7501      1.2009      8.8207
H     -0.3299      3.8808      9.1664
H     10.3915     -4.4402      8.8000
H     10.0988     -0.6252      6.7644
H     19.1764      9.9445     13.0038
H      8.3745      6.2969     11.6800
C     14.5421     10.1923     13.8457
H      3.1334      4.7700      9.8100
H      9.4337     -4.2707      2.6886
