257

C     32.6362     -3.6726     13.9574
C      4.1582      1.4264      6.8012
C      3.1929      3.5766      1.0468
C      6.9598      5.0988      2.4260
H     10.3132     -9.5417      2.4209
C      7.4190      3.7202      2.5947
C     16.2579     -8.6882      5.2064
C     19.9995     -3.5519     10.9954
C     28.9135     -5.7937     19.4321
C      6.2214      2.0730      3.9148
C     19.3381     -4.8235     10.0783
C     26.3758     -4.0336     13.5555
N     -0.1977      3.0280      6.2545
C      0.4005      5.6669      0.6506
C     16.1756     -8.8195      6.7246
H      0.1568      5.3960     -0.3741
C     28.5858     -6.4769     17.3241
C     29.6668     -2.1496     16.5177
H      1.0522      0.4479      9.4621
H     10.4758    -10.2962      5.3317
H     19.5246     -1.9331     10.0485
C     29.8044     -3.4866     16.1816
H     21.1211     -3.4185     10.4394
H      7.2862      3.5932      3.6171
H     25.1144     -5.4254     10.5204
H     11.5724     -8.1131      6.7180
C      3.0470      2.6054      7.3421
H     -2.6825     10.8095      0.3938
H      7.3868      2.2322      4.2093
O     27.6053     -2.7637     15.0757
C      7.9683      0.2432      8.5248
C     19.6726     -7.0571      9.9592
H      1.6335      5.4741      8.9501
C      6.3342      2.7877      2.6743
H     19.3545     -7.7104      7.1693
H     20.0582     -3.8225     12.0856
H      4.9801     -2.8186      8.8066
H     17.5599     -5.4850     10.5438
C     30.3213     -2.0469     17.7743
C      9.9103     -4.2707      5.0775
O      1.9071      8.5602      4.9465
C     -1.6801      7.7532      7.2780
C     21.6360     -5.0002     12.2751
C     33.5752     -4.9496     13.1950
C      6.4275      7.4030     -0.3824
H      4.7650      3.9883      1.5297
H      1.5107      0.2436      4.6884
H     -4.8853      6.0657      8.2621
C     19.8939     -5.8283     11.0666
C      7.4790      5.8446      3.3257
H     34.4503     -3.1483     14.9812
C     11.6373     -6.3868      5.2729
H     27.9811     -4.0319     20.6269
H      4.6159      1.0731      2.1944
H     18.0383     -2.4543     10.8695
H      3.9605      6.7222      0.0190
C      9.7324     -1.4519      7.4062
C     18.6733     -7.5280      9.3816
C     28.9050     -5.2031     18.0239
C      4.7599      6.4008      0.7984
C     30.2210     -3.6317     14.7859
H      9.3243     -5.1373      5.4216
H      8.0028      8.0091      3.5994
H      3.6437      1.1804     10.3630
H      6.6833      0.1216     10.1257
H     30.5611      0.0468     17.6912
C      0.1435      2.6431      8.5617
C     25.7411     -4.3846     12.2413
C      1.6377      1.7462      6.9714
C     -0.6469      6.2887      1.4324
H      5.5232      8.0435     -0.4800
H      9.0700     -9.6302      4.2397
H      5.7314      4.9570      4.8247
H     19.0675     -1.5257     11.8631
C     22.9473     -5.2629     13.2801
O     27.7135     -1.9711     12.5725
C     19.9629     -4.4339      8.6398
C     28.9082     -4.3114     20.2098
C      3.3483      1.3341      9.1090
C      3.2675      1.7365      4.5265
H     -1.1132     10.1587      0.9851
H      6.1556     -0.3182      7.2297
C      3.9826      3.5030      3.1754
H      8.8912     -2.4938      5.0130
C     -2.0677      8.6471      0.8501
C     23.8254     -5.9453     12.2580
H     10.3367     -3.3765      7.3745
C      5.3395      2.9459      4.8565
H     31.1445     -0.6958     19.0771
H      7.8131      0.3822      7.4169
C      2.6942     -0.8269      8.4189
C      5.0162     -1.6108      8.3016
C     10.4996     -7.7605      3.3578
C     29.1192     -2.9320     19.5779
C      2.8444      3.8263      2.4639
C     18.0696     -4.9434      9.7378
H      2.0827     -1.7882      8.3886
H     28.4775     -4.8478     13.3448
H     11.0947     -8.0658      1.3032
H      2.0365      3.0198     -0.3143
O      5.5327      6.8959      6.4605
C      0.5656      7.9671      4.6648
H     29.2277     -2.1699     20.3872
C     10.3431     -4.2785      3.6911
C     10.8228     -5.3358      3.0987
H     19.3447     -3.5496      8.4827
C     -2.8527      7.3981      7.8306
H      0.9807      2.2512      4.7011
H     27.0969     -4.8895     10.3516
H      5.9819      2.1443      1.7908
C      3.9141      2.1225      0.7477
C     -0.2271      8.7005      2.3229
C     -0.1030      3.8919      3.8933
C      7.5339     -1.8186      7.7279
H      1.4396      0.2354      2.5807
H     -3.5821      6.8201      7.1343
H     28.4244     -2.6398     18.7410
H     27.1142     -5.7940     12.8875
O      0.2917      9.7377      6.2157
C      6.3010     -1.0465      7.9692
C      0.5201      6.7327      6.7299
C     27.4443     -5.0401     13.7427
H     28.7238     -4.4216     15.2116
C      0.6418      7.6376      2.9860
H      8.6712      0.9511      9.0651
C      2.7325      1.3011      3.2321
C      0.2902      2.2602      7.1004
C     10.4383     -2.7044      6.7976
C     10.0927     -9.6849      4.3343
C     30.8274     -0.8089     18.1240
C      2.7592      3.4871      9.9214
C     -1.2894      7.9160      1.9528
C      4.0281     -0.7223      8.3200
N      1.8585      0.1667      3.5050
H      2.1613      1.4407      0.0063
C      3.1434      1.5898     -0.4136
O     30.3470     -6.4552     15.6370
C      9.2660      6.7080      1.3563
H     31.3590     -3.3531     19.2082
H      1.8827      0.8438      7.7006
C     10.5032     -8.4288      2.2700
C     -3.0042      7.3567      9.5667
H      1.5206      1.4584      6.0247
H      7.1790      4.7252      0.4813
H     21.5403     -4.0601      7.4845
C     -2.0432      9.9547      0.6955
H     17.9390     -5.7022      8.8833
H      3.2351      6.6861      9.1273
H      9.6556     -7.2509      6.0780
H     -0.6900      9.6767      4.5637
H     26.8975     -3.2421     10.7223
H      3.3061      0.4728     -0.7023
C     27.9133     -5.0856     15.1196
H     17.6774     -7.7764     10.1041
C     27.0011     -4.0620     11.2205
C     19.0121     -2.4085     10.9773
H      2.5323      2.9704     10.8465
H     29.3335     -1.1364     16.2767
C      4.3051      8.6358      4.6283
C      7.4731      7.3524      2.9393
C     33.6435     -2.6809     14.4445
C     31.5573     -4.2632     14.9702
C      4.2163      6.0988      6.3258
C      1.9435      5.1664      2.3852
C      6.1107      6.2661      0.2402
C      5.5977      8.0413      4.4347
C      7.8881      6.9665      1.4145
C     17.2540     -7.8739      7.3703
C      1.4882      4.8482      0.9905
H      8.8441      6.5457      4.2808
C      6.4804      7.3313      5.5554
H      9.5880      5.5387      1.3033
C      7.0309      5.7173      1.0016
H     -0.5165      3.2006      3.2095
H     -2.0256      7.3604     10.0008
O      7.6911      7.0268      5.8692
H     22.0493     -4.0034     12.0420
H      1.9185      2.2275      3.0176
H     -0.1580      9.8741      2.5860
H      4.2803      5.4853      0.9202
C     24.9747     -5.3055     11.7084
C     28.7382     -6.5085     15.5982
H      1.6354      7.4417      8.4496
C     10.8794     -8.4954      4.5612
C     13.2727     -6.2401      5.3099
H     17.5035     -4.1925      9.1351
H      2.6957     -0.1012      5.6801
C     14.3034     -7.1543      4.7059
H     -0.0824      6.3521      8.5530
C     -4.8279      5.9379      9.3411
C      4.4392      0.8757      8.2226
O      6.1033      4.1550      5.0919
C      6.1226      7.9565      3.2161
C      9.8690     -2.7997      5.3171
C     -0.2518      6.1944      2.9513
C     11.2644     -6.5421      3.7105
H     29.7716     -4.6189     20.9594
H     27.8936     -4.5225     11.9011
H     10.5114    -10.2763      3.3360
C      2.1278      0.4326      8.9424
C      0.6666      5.2658      3.5084
C      5.1274      3.6872      2.4791
H      0.8892      4.0566      7.4510
H     22.0468     -4.6654      8.3636
H     10.6694     -0.7840      7.3877
H      7.7045     -2.6574      6.9352
C      2.1295      6.4913      8.6543
C     10.8496     -7.6156      5.8972
C      3.5415      1.1504      1.8238
C     14.4949     -8.4924      5.3239
C      1.9271      6.2859      7.1194
C      2.2226      4.0561      0.0414
H     -1.7728      5.9920      1.5591
H      5.1333      2.0545      0.3644
H      3.4895      2.2766     -1.1394
H     11.5382     -2.2968      6.5591
H      5.9721      1.0149      3.8959
C     -0.5285      8.9013      5.2940
C     -3.9017      6.4940     10.1110
H     34.1320     -2.3201     13.6946
C      8.6008     -1.1887      8.3455
H      9.3824      6.8203      2.5282
H     11.0915     -2.6085      4.8714
H      5.7688      1.8432      9.3786
H     28.4813     -1.4285     12.0393
C     -0.2167      7.2008      7.7616
C      0.5585      3.2506      4.9880
O      8.6225      5.5460      4.4183
C     -1.6858      8.0301      5.6566
C      6.2052      2.2728      7.2399
C      5.3940      1.9701      6.2666
C      3.4074      0.8359      5.5112
H     19.5001     -4.9556      7.8843
H     21.4809     -3.3134      9.2605
H      0.7044      8.9237      6.4104
C      1.8903      4.4640      6.9603
C      3.8323      5.6642      4.8276
C      3.2452      2.7973      8.7719
H     32.7708     -2.0399     14.8797
C     21.4373     -5.9613     11.3806
H     16.7831     -7.4276      8.3610
H     24.1599     -6.8823     12.0397
H      7.3019      2.2482      7.1989
C      3.9191      3.0366      4.4494
C     30.3680     -3.1365     18.7350
C      6.5359      0.0250      8.9835
C     21.2638     -3.9718      8.4354
C     18.6881     -7.9065      7.9856
C      5.7513      1.2762      8.4254
H      0.8429      2.1090      9.3356
H     -3.3313      8.1070     10.2551
H      9.2843     -0.7104      6.6439
H     32.0714     -3.1389     13.3280
H     21.4101     -7.2864     11.6133
C     27.3865     -2.8247     13.8506
H      3.1531      4.5118      9.9036
H     10.3477     -3.4022      3.3588
