255

C     19.9413     -3.9016      0.9956
N     -1.7475     10.5986      1.5285
C      3.9027      1.5404      6.9195
C      2.1041      2.9882      1.5421
C      7.1034      5.0232      2.4813
H      9.6154     -9.0842      2.6345
C      7.0852      3.6544      3.0404
C      3.5891      3.8411      5.2322
C     16.3154     -5.7441      6.3759
C      5.6585      1.5621      3.7763
C      5.7548     -4.1518      9.5914
C      1.1107      8.6138      0.8366
N     -0.2391      2.9479     -6.7170
C      0.2445      5.7383      0.6394
O     -1.2532      1.9929      1.5764
C      3.2629      4.1606      6.8443
C     15.7114     -6.7573      4.4107
C     16.6732     -2.3930      4.2186
H      1.1918      0.6369      9.7643
H      9.3585     -9.5164      4.4049
H     17.3687     -6.0338      2.2451
C     17.0700     -3.7499      3.2570
H      3.9498     -5.1434     10.6919
H      7.4487      3.6701      4.1617
H      0.3306      7.3373     -2.2892
H     11.7039     -8.1092      6.4868
C      2.9203      2.6058      7.3682
H      6.4342      0.5821      3.9116
O      1.7731     10.2587      2.5064
C      7.9793      0.1032      8.3180
C     -5.9810      5.9794     -2.9364
H      2.5069     -0.1766      6.0781
H      1.9610      7.8164     -4.0558
C      6.3906      2.3631      2.7930
H     -6.2511      4.4178     -4.8850
H      4.6195     -1.7939      9.7999
C     17.7493     -2.0787      5.0454
C      9.7650     -4.6541      5.2024
O     14.9901     -4.2899      4.7426
C     -1.4749      7.9372     -5.7270
C     -4.1370      8.1622     -0.8895
C     20.7045     -5.1139      0.2411
C     -6.3145      7.2674     -0.5254
H      5.2465      3.5135      1.3303
H      1.9478     -1.2917      3.2246
H     -4.7920      5.5971     -4.5336
H      1.2543      9.9230      3.2756
C     -5.5053      6.4566     -1.5358
C      7.8412      5.8331      3.4294
H      7.9414      7.6282      2.4733
C     11.8410     -6.2154      5.1516
H     15.8294     -4.5884      7.6507
H      2.2367      0.0259      1.3609
H     15.0230     -5.7693      0.5950
C      9.5297     -1.5897      7.1588
C     -7.3775      5.5218     -3.5233
C     16.1464     -5.3996      4.8789
C     -8.2978      6.0472      0.0044
C     17.5222     -3.8893      1.9483
H      9.2263     -5.5912      5.7100
H      8.4776      7.4598      4.0707
H      6.3966     -0.7614      9.8737
H     17.7063     -0.5250      4.0283
C      0.0968      3.2439     -4.1634
C      0.6854      8.3996     -0.6094
C      1.6445      1.5729      7.7135
H     -2.2356      8.5066     -3.1104
C     -0.7321      6.3952      1.6062
H     -6.9026      8.0500     -1.1056
H     10.8955    -10.0863      4.7940
C     -2.7003      7.5580     -0.3985
O      1.9605     10.8806      0.4300
C      6.7654     -4.4533      8.4972
C     16.8245     -4.7121      7.3911
C      3.3650      1.3769      9.2706
C      2.6892      1.8163      4.7494
H     -2.1197     11.5721      0.9596
H     -2.7598      9.8010     -0.0353
H      6.0402     -1.1043      6.6939
H      2.6040      3.3825     10.6556
C      4.0012      3.2381      3.0730
H      8.2506     -3.5931      6.1650
C     -1.7801      8.4085      0.4705
C     -1.7449      7.3754     -1.3906
H     10.1542     -3.4122      7.4448
C      5.1758      1.9504      5.0508
H      3.8157      0.1048      5.3905
H      8.1574      1.0784      8.2890
C      2.5762     -0.7062      8.7305
C      4.7069     -1.7680      8.4603
C     11.0752     -7.7569      3.6334
C     16.9886     -3.4199      6.6370
C      2.4208      3.6624      2.6661
C      4.6310     -4.9145      9.7755
H     10.5882     -8.1154      1.5142
H      2.3418      4.9389     -1.0693
O      5.8713      6.4362      6.4789
C     13.6982     -4.7028      4.5262
H      4.1565     -2.5344      8.0136
C     10.3312     -4.4456      3.7866
C     10.8300     -5.1529      3.0420
H      6.5430     -4.5624      7.3086
C     -2.6698      7.7431     -5.1471
H      2.2614      4.0133      4.9943
H      1.4201      8.6104     -2.5621
H      6.7373      1.6794      1.8892
H      1.2202      3.2348     -3.7761
C      3.0633      1.7974      1.1531
C      0.0969      8.5171      2.1555
C     -0.6195      3.0339      1.3172
C      0.1879      3.9729     -9.0466
C      7.1828     -2.1201      7.8487
H     -3.6482      7.4441     -5.7299
H     16.1881     -2.8778      6.1448
H      0.1529      6.0012     -0.3344
O     -0.1584      9.9192     -6.8981
C      6.0000     -1.3364      7.8372
C      0.6865      7.1657     -6.0707
C     15.2290     -4.8786      1.1969
C     13.5981     -5.4071      3.1270
H      8.6830     -0.3805      9.2556
C      2.5732      0.7129      3.6818
C      0.3005      2.2961     -5.3785
C     10.0869     -2.8186      6.6416
C     10.1825     -9.4342      5.2026
C     18.4183     -1.1078      4.5440
C      2.8882      3.7081      9.7618
C      0.8297      2.9142      1.0117
C     -1.2301      7.8213      1.7321
C      3.7958     -0.7181      8.2635
N      2.1628     -0.5374      3.8458
H      3.6387      2.3864     -0.9926
C      2.9876      1.9294     -0.3835
O     17.3368     -6.8937      2.4566
C     -3.3644      6.3906      0.4550
H     19.1846     -3.9523      6.3223
H     -0.3353      1.5743     -5.1143
C     10.1007     -7.9670      2.5502
C     -3.0029      7.9280     -3.8300
H      1.3940      0.6961      6.8911
H     -5.9769      4.1491      0.4735
H      8.6831     -3.7140      8.1606
C     -2.0431      9.6795      0.6174
H     -7.9724      5.0217     -2.6432
H      1.4411      6.1505     -3.4950
H     -1.2002      9.3973     -8.5847
H      1.7275     10.1599     -1.5168
H      2.1888      2.2278     -1.0019
H     -0.6728      2.9146     -3.6552
C     15.1305     -5.4235      2.5924
H     -1.7418     10.6193      2.6892
C      1.0621      9.2441     -1.6603
H     15.5255     -2.7204      4.5230
C      4.3519      8.2424      4.4036
C      7.6775      7.2873      3.4705
C     21.2735     -3.2425      1.6132
C     19.0451     -4.1036      2.2748
C      4.3832      6.1615      6.2883
C      1.9252      4.9878      2.4767
C     -6.9363      6.1420      0.1130
C      5.5463      7.6229      4.3536
C     -4.6712      6.3801      0.8504
C      4.2522      5.1549      7.4168
C      1.4960      5.2291      1.0354
H     10.8362     -6.3675      6.8113
C      6.4194      7.3546      5.5791
H     -2.8537      5.3799      0.4199
H      0.9381      2.1915      0.4015
C     -5.9187      5.2971      1.0623
H      0.2699      3.0249     -9.4549
O      7.5945      7.5150      5.6431
H     -4.5835      9.3580     -1.1635
H     22.1401     -4.1591      1.2805
H     -0.1324      9.6542      2.3687
H      3.0256      3.9510      0.4676
H      4.7074      5.3450      4.1583
C     -0.4038      7.5477     -1.3562
C     15.6990     -6.7681      2.9517
H      2.9805      6.6535     -3.6735
C     10.6803     -8.1130      5.0009
C     13.4315     -5.9525      5.4400
H     17.2702     -5.0550      8.2608
H      1.7641      2.1818      5.3695
C      1.3411      5.9414     -8.1695
H      1.9545     -1.5269      8.6056
H      1.1728      1.1875      2.2830
H     16.4608     -1.7669      3.1812
C     -4.6450      5.7488     -3.5241
C      4.1998      0.8068      8.2574
C      6.3219      7.8583      3.2295
C      9.1836     -3.3861      5.4838
C     -0.0554      6.3414     -9.9211
C     11.6017     -6.4469      3.7684
H     -8.4865      6.6502     -1.0067
H      9.7158    -10.0467      5.9863
C      2.0761      0.8003      8.9612
C      0.8766      5.2196     -9.4906
C      4.9885      3.1303      2.2794
H      1.4227      4.3142     -5.1573
H      7.0856     -5.6604      8.9368
H     10.2715     -0.7800      7.2469
H      7.0654     -2.5422      6.6660
C      2.1263      6.6908     -4.3084
C     11.1914     -7.1787      5.9431
C      2.1751      0.7270      2.0500
C      1.1568      4.8168     -7.1643
C      2.0609      6.4723     -5.7121
C      2.1665      4.4188     -0.2135
H     -1.5263      5.9042      1.2371
H      3.9521      1.6264      1.2249
H      3.1025      1.0011     -1.0166
H     -3.8546      4.9244     -3.1088
H     11.2610     -2.8685      6.3901
H      4.7212      1.1021      2.9124
C     -0.5680      8.9595     -7.9187
C     -3.9103      7.0603     -3.1731
H     -9.3042      5.6259      0.6263
H     21.1422     -2.1958      1.5577
C      8.2633     -1.0567      7.4282
H      8.9663     -2.3389      4.9789
H      5.7067      1.7253      9.4552
C     -0.2328      7.3506     -5.0772
C      0.4889      3.7027     -7.7314
O      8.0317      5.3008      4.7243
C     -1.6065      8.0977     -7.2230
C      6.2175      1.4063      7.1544
C      5.1113      1.9011      6.3245
C      2.9964      0.8309      5.9418
H      7.4651      5.8194      5.0875
H      6.7269      2.4596      7.1999
H     -7.7509      3.5586     -4.4640
H      8.0619     -3.1311      9.6180
H      0.2310      9.4950     -6.2559
H     19.0367     -0.6274      5.3638
C      1.8508      4.9310     -5.9951
C      4.1312      5.2832      5.0983
C      3.3010      2.7600      8.8616
H     21.4846     -3.4473      2.5991
C     -4.3157      7.1359     -1.8498
H      3.7399      5.4253      8.2062
H     -1.8624      6.2364     -1.9038
H      6.6875      0.7283      6.6244
C      3.8437      2.6314      4.4635
C     18.1564     -3.4333      5.9566
C      6.6689     -0.3105      8.8374
C      7.7539     -3.4585      8.5666
C     -7.3919      4.7476     -4.7778
C      5.6474      1.0104      8.5422
H     -0.3678      4.2058     -4.7218
H      1.4387      3.6166     -0.5154
H     19.6239     -3.1360      0.2057
H     -1.3986      3.1336     -6.9970
C      1.4664     10.0199      1.1727
H      2.5271      4.6810      9.6105
H      9.6725     -3.2507      3.6179
255

C     19.9596     -4.0044      1.1637
N     -1.8134     10.7485      1.4882
C      3.8566      1.4349      6.9862
C      2.3128      2.9668      1.3818
C      7.1458      5.1055      2.4931
H      9.2999     -8.6913      2.7027
C      7.2014      3.8467      3.0106
C      3.4331      3.9539      5.3527
C     16.2000     -5.6926      6.3483
C      5.8553      1.4995      3.7447
C      5.7024     -4.1101      9.5282
C      0.9853      8.7223      0.8399
N     -0.2206      2.9412     -6.6538
C      0.2401      5.7637      0.6455
O     -1.3612      2.0790      1.3938
C      3.1280      3.9605      6.8203
C     15.7150     -6.8241      4.4899
C     16.4698     -2.3855      4.0397
H      9.3502     -9.1785      4.5774
H     17.7018     -6.1757      1.9704
C     17.0472     -3.8090      3.4189
H      3.8479     -4.9081     10.5027
H      7.3737      3.5357      3.9863
H      0.1774      7.1456     -2.0296
H     12.0145     -7.5416      6.5291
C      2.9349      2.6593      7.4309
H      6.2588      0.6394      3.9613
O      1.8430     10.2129      2.5463
C      8.0522      0.1523      8.3147
C     -5.9881      6.0860     -2.8930
H      2.0912      0.1664      6.1455
H      2.0644      7.7933     -4.2588
C      6.1636      2.4059      2.5577
H     -6.4669      4.9212     -5.4152
H      4.6813     -1.7468      9.4215
C     17.6533     -2.0580      5.1662
C      9.8795     -4.8484      5.2617
O     15.0545     -4.3428      4.8126
C     -1.3955      7.7885     -5.6903
C     -4.0009      8.2430     -0.8091
C     20.5584     -5.2545      0.1895
C     -6.4424      7.2435     -0.7113
H      5.3692      3.7329      1.6147
H      2.0963     -0.8651      2.8691
H     -4.6943      5.3470     -4.4845
H      0.9899     10.4114      2.9794
C     -5.5314      6.5576     -1.6288
C      7.6620      5.9431      3.4461
H      8.1329      7.5320      2.4980
C     11.9768     -6.0937      5.2678
H     15.9212     -4.2744      8.1103
H      1.9439     -0.3181      1.9881
H     15.3189     -5.8125      0.4523
C      9.6814     -1.5248      7.1960
C     -7.1992      5.4537     -3.4654
C     16.0072     -5.2590      5.0441
C     -8.3484      5.9300     -0.0830
C     17.5888     -3.7093      2.1509
H      9.2308     -5.8829      5.4897
H      8.3912      7.7291      4.1453
H      6.3509     -0.7927      9.7966
H     17.9490     -0.6153      3.6025
C      0.1844      3.3035     -4.1073
C      0.7900      8.2987     -0.7290
C      1.5528      1.6643      7.7350
H     -2.0739      8.5592     -3.3870
C     -0.6740      6.3259      1.5697
H     -7.2725      7.6812     -1.1287
H     10.8159    -10.1669      4.8407
C     -2.8048      7.5975     -0.3039
O      1.9080     10.9089      0.2920
C      6.6294     -4.5099      8.4000
C     16.6562     -4.7069      7.3065
C      3.2330      1.5009      9.3581
C      2.7722      1.6146      4.7169
H     -2.1730     11.6897      1.2581
H     -2.5621      9.9446     -0.5131
H      5.7601     -1.1391      6.8921
H      2.7436      3.1850     10.5133
C      3.8859      3.2350      3.0897
H      8.1453     -3.6375      6.3282
C     -2.0071      8.4118      0.5121
C     -1.8003      7.2367     -1.3905
H      9.7538     -3.5383      7.5403
C      5.1050      2.0319      4.9519
H      4.0462      0.1882      5.1707
H      8.3674      1.1098      7.9417
C      2.4172     -0.7913      8.5747
C      4.6707     -1.7904      8.4565
C     10.9890     -7.8400      3.7624
C     16.9923     -3.4865      6.7164
C      2.4982      3.6104      2.7230
C      4.7070     -4.9177      9.7960
H     10.4677     -7.8092      1.5897
H      2.3017      5.0396     -0.9774
O      5.8432      6.3999      6.4964
C     13.7290     -4.7171      4.5289
H      4.5099     -2.8109      8.1078
C     10.1671     -4.3465      3.9001
C     10.9162     -5.1887      3.0474
H      6.3983     -4.6060      7.3723
C     -2.7467      7.6584     -5.1336
H      2.5316      3.9727      4.8897
H      1.8867      9.3417     -2.2198
H      6.8089      2.1466      1.8099
H      1.2579      3.3660     -3.8359
C      3.0254      1.7306      1.0492
C     -0.0453      8.5595      2.0777
C     -0.6294      3.0895      1.2917
C      0.0839      3.8872     -9.1044
C      7.4566     -2.2329      7.7568
H     -3.3008      6.9061     -5.6747
H     16.2605     -2.8170      6.4068
H      0.0267      5.5411     -0.4034
O     -0.0750      9.9340     -6.9287
C      5.9807     -1.3815      8.0691
C      0.8553      7.0069     -6.0540
C     15.2997     -4.9492      1.1533
C     13.4549     -5.3303      3.0099
H      8.4629      0.2739      9.4542
C      2.4359      0.7107      3.5658
C      0.2251      2.4045     -5.1761
C     10.2459     -2.7350      6.5930
C     10.2003     -9.4304      5.1571
C     18.4942     -1.0454      4.4691
C      3.0205      3.7600      9.7006
C      0.9017      2.8874      1.0048
C     -1.3272      7.8978      1.7645
C      3.7273     -0.5694      8.2854
N      2.2986     -0.4943      3.9089
H      3.6154      2.5370     -0.9227
C      3.0229      1.7174     -0.3669
O     17.4180     -6.9825      2.4095
C     -3.4169      6.4450      0.3705
H     19.0557     -4.0841      5.9530
H     -0.6190      1.5235     -4.9725
C     10.0640     -8.0983      2.4781
C     -2.8836      7.8813     -3.7809
H      1.4579      0.7544      6.8739
H     -5.8284      4.2221      0.6965
H      8.5818     -3.5441      8.0181
C     -2.0623      9.7818      0.4926
H      1.1468      6.1384     -4.0565
H     -1.0031      9.1370     -8.7108
H      1.6659     10.0270     -1.0601
H      2.0360      2.1068     -0.6356
H     -0.9599      3.2517     -3.3954
C     15.1012     -5.5175      2.4298
H     -1.6141     10.4129      2.5202
C      1.0210      9.4049     -1.6701
H     15.6931     -2.5878      4.6487
C      4.2796      7.9633      4.2193
C      7.7018      7.4261      3.4267
C     21.1613     -3.4926      1.5317
C     18.8683     -4.2482      2.0167
C      4.5176      6.1202      6.3015
C      2.0736      5.0122      2.4987
C     -7.0915      6.1719      0.2366
C      5.6672      7.5594      4.4237
C     -4.8213      6.4755      0.5967
C      4.2630      5.0956      7.5051
C      1.4577      5.1293      0.9606
H     10.7482     -6.7974      6.7585
C      6.3215      7.3372      5.6044
H     -2.8070      5.8217      0.7134
H      0.3989      2.5879     -0.1177
C     -5.7954      5.3903      1.0027
H      0.1785      2.9794     -9.7596
O      7.5112      7.5321      5.8332
H     -4.0631      9.4201     -1.1829
H     22.2024     -3.6341      1.5052
H     -0.1537      9.4899      2.4244
H      3.3452      4.2850      0.3552
H      4.5838      5.4856      4.1001
C     -0.3673      7.5683     -1.3292
C     15.8605     -6.7561      2.9045
H      2.8736      6.3313     -3.6407
C     10.5324     -8.0261      5.0140
C     13.4261     -5.9186      5.4521
H     17.5907     -4.9574      8.1047
H      1.9312      2.2715      5.1781
C      1.4345      5.7284     -8.0624
H      1.7576     -1.6810      9.0622
H      1.2679      1.3635      2.3418
H     16.9417     -1.6374      3.3915
H     -0.0629      7.1928     -4.0709
C     -4.6619      5.8473     -3.4752
C      4.2606      0.7852      8.3152
C      6.3901      7.8947      3.1847
C      9.1938     -3.5119      5.6852
C     -0.1590      6.2024    -10.0452
C     11.4468     -6.4349      3.7492
H     -8.6761      6.4449     -0.9269
H      9.6623     -9.7932      6.1560
C      1.9453      0.8320      8.9698
C      0.8852      5.1831     -9.5010
C      5.0845      3.0547      2.3573
H      1.1713      4.1848     -5.2190
H      6.9093     -5.3310      8.8262
H     10.3367     -0.5799      7.5321
H      6.9635     -2.4870      6.8644
C      1.9702      6.7565     -4.2245
C     11.1124     -7.1392      5.9387
C      2.1427      0.8823      2.1492
C      1.2253      4.7433     -7.1837
C      2.1122      6.4464     -5.8274
C      2.2513      4.5510     -0.1665
H     -1.5144      5.8690      1.1870
H      3.9465      1.5845      1.4581
H      2.9370      0.8453     -0.9064
H     -4.1717      5.2093     -2.6796
H     11.3653     -2.5380      6.3203
H      4.8764      1.0170      3.4743
C     -0.5498      8.9675     -7.6534
C     -3.7656      7.1238     -3.0287
H     -8.7818      5.0940      0.4526
H     21.1180     -2.4653      1.2458
C      8.4026     -1.1799      7.6402
H      8.7720     -2.3696      5.4692
H      5.8479      2.0039      9.2030
C     -0.2232      7.4122     -5.1710
C      0.4761      3.6567     -7.5642
O      8.0257      5.2945      4.4853
C     -1.5651      8.0269     -7.3483
C      6.3145      1.4959      7.1593
C      5.1602      1.8541      6.4469
C      3.0555      0.7100      5.7935
H      7.9317      6.2194      4.9577
H      7.1898      2.1275      7.2087
H     -7.6859      3.7212     -4.3830
H      8.1260     -3.3318      9.5451
H      0.0449      9.3172     -6.2204
H     18.6732     -0.2680      5.2860
C      2.0226      4.7819     -5.8849
C      3.9692      5.4013      4.9894
C      3.2710      2.7822      8.8703
H     21.0251     -3.2860      2.6761
C     -4.3141      7.3162     -1.8459
H      3.7928      5.6800      8.1651
H     -2.2608      6.2444     -1.8579
H      7.2587      0.6847      6.9095
C      3.9590      2.5668      4.4193
C     18.1817     -3.3021      5.9842
C      6.4341     -0.2648      8.7971
C      7.6889     -3.4183      8.5405
C     -7.4869      4.7477     -4.7075
C      5.6538      1.0732      8.4642
H     -0.0760      4.3176     -4.7214
H      2.4048      3.5649     -0.4370
H     19.5585     -3.2460      0.5623
H     -5.2530      5.6087     -1.0440
H     -1.1069      2.5225     -6.6812
C      1.5993     10.0372      1.1243
H      2.4918      4.6247      9.6902
H     10.2358     -3.3220      3.5489
