259

C     19.6758      8.9392     13.9071
C      4.2185      1.5611      6.9502
C      3.0334      3.3350      1.0888
C      7.3859      4.7558      2.6239
H     -2.4774      3.4825      2.5558
C      7.6275      3.5070      2.9519
C      3.0873      4.1248      5.4876
C      6.9022      9.5932     10.6622
C     16.0846      7.1980     19.5780
C      6.0911      2.1498      4.3995
C      6.2369      8.4923      9.9135
C     13.9775      8.8967     13.5085
N     -0.2223      3.1347      6.6300
C     13.4848     -6.9531      0.2159
C      3.1830      4.0729      6.8932
H     13.2548     -7.4861     -0.9410
C     15.6684      6.2838     17.4962
C     16.7502     10.4196     16.5338
H      1.7239      0.8655     10.1403
H     -3.1609      2.9696      4.7331
H     17.0224      5.8143     16.5301
H      5.6628     11.2408     12.1103
C     16.9160      9.1016     16.2645
H      7.6827      9.8482     10.1133
H      8.1946      3.3409      3.6736
H     -0.5772      5.2893      6.3868
C      3.2623      2.6353      7.3899
H      9.5492     -2.6638     -0.2649
H      7.0288      1.8697      4.8043
O     14.6924     10.0750     15.0149
C      8.1545     -0.0932      8.7516
C      6.6273      6.1579      9.9202
H     13.9796     -6.7916      9.0867
C      6.2519      2.7803      3.0697
H      6.1959      4.4445      7.3405
H      7.6138      9.2839     11.4668
H      4.6271     -2.5512      8.6321
H      5.3191      6.9134      8.9514
C     17.1410     10.7430     17.7804
C     10.0741     -4.1320      4.7485
O     14.7535     -4.2572      4.8697
C     11.0809     -5.0431      7.0386
C      8.5195      8.1775     12.1493
C     20.1876      7.8264     13.1247
C      6.3307      7.1281     -0.7378
H      5.3113      3.8146      1.4531
H      3.0378     -0.8004      3.9303
H      7.5512     -6.9242      7.8667
C      6.8282      7.1396     10.7846
C      8.1606      5.7807      3.3272
H     21.6419      8.9557     14.3585
C     -1.1751      6.7045      4.9500
H     15.4956      8.0713     21.1694
H      5.0901      1.1735      2.6186
H      5.4155     11.2280      9.8218
H      4.0012      6.1904     -0.2111
C      9.6461     -0.9365      7.0422
C      5.6103      5.3730      9.4622
C     15.7472      7.7480     18.0568
C      4.7444      5.6138      0.3058
C     17.4337      8.8322     14.9511
H      9.1938     -4.6866      5.0147
H      8.3977      8.1020      3.3059
H      6.2578     -0.3431     10.0584
H     17.7404     12.4393     17.1520
C      0.1350      2.8302      8.7745
C     13.3797      8.3158     12.1761
C      1.8842      1.9273      6.8683
C     12.5093     -6.4795      1.2144
H      5.4164      7.8058     -0.3717
H     -1.4046      2.5044      4.9147
H      6.3970      4.4624      4.2423
H      4.7746     10.0784     11.1140
C      9.8296      7.6233     12.7817
O     15.0987     11.1680     13.0961
C      6.5228      8.4608      8.3272
C     16.3867      8.2528     20.3926
C      3.6665      1.2706      9.4504
C      3.4630      1.7553      4.6532
C      3.9873      3.6826      3.3719
H      8.7110     -2.9951      5.3036
C     10.4121     -4.2727      0.6086
C     10.8792      7.1783     11.9593
H     10.6174     -3.0241      7.0545
C      5.3969      3.0495      5.2138
H     18.8393     11.2063     18.1730
H      8.0386      3.0072      1.8524
H      8.2337      1.0837      9.0135
C      2.4333     -0.5452      8.3938
C      4.8551     -1.6799      8.1505
C     -2.1364      5.3566      3.3709
C     16.1003      9.6196     19.7598
C      2.8444      3.8689      2.5358
C      4.8296      7.8262      9.6081
H      1.5141     -1.0498      8.3718
H     15.3325     -8.2725     -0.9316
O      5.4162      6.7455      6.7388
C     13.4241     -4.7784      4.5222
H     16.3980     10.4217     20.5032
C     10.1687     -4.1280      3.2859
C     10.8124     -5.2376      2.7932
H      5.7775      8.9152      7.8159
C      9.7439     -5.5011      7.2244
H      1.0691      2.4580      4.4121
H     15.1125      7.5924     11.2238
H      6.5609      1.6898      2.3852
H      0.6610      2.8312      9.7695
C      3.6385      1.8824      1.0323
C     12.8467     -3.9516      1.7987
C     -0.3646      4.0438      3.9413
C      7.3145     -1.7988      7.2498
H      1.7315      0.2730      4.3194
H      9.0269     -6.1967      6.8720
H     15.0176      9.6245     19.2560
H     15.2122      7.2051     13.3576
O     12.7457     -3.2892      6.4792
C      6.1844     -1.2703      7.7357
C     13.4759     -5.9613      6.6309
C     15.1728      7.9987     13.8833
H     15.4949      8.3154     16.0703
C     13.4908     -4.9252      2.9423
H      8.6087     -0.8147      9.3310
C      3.0648      1.1015      3.2785
C      0.7299      2.4873      7.5192
C     10.4441     -2.2035      6.4100
C     -2.2064      3.2670      5.2796
C     17.9760     11.6419     17.8868
C      2.5013      3.3381      9.6560
C     11.6390     -4.6502      1.4638
C      3.8198     -0.6632      7.8825
N      2.4114     -0.1321      3.5951
H      2.3288      0.1006      1.0061
C      2.6729      0.9258      0.3663
O     17.0012      6.3722     15.7745
C      9.1432      6.6987      0.8586
H      1.8065      1.0506      7.8048
C     -2.1159      4.4606      2.2330
C      9.8551     -5.2409      8.8791
H      1.8838      1.8016      5.7746
H      7.6374      4.7255      0.3197
H      8.4155      9.3571      7.0267
C     10.3813     -2.9734      0.3824
H      4.2380      8.5191      9.3311
H     15.4771     -5.9328      9.2691
H     -2.4251      5.6584      6.1453
H     12.1867     -3.0515      4.4548
H     13.9110      7.9601      9.9762
H      3.4432      0.4716     -0.2836
H     -0.7725      2.1397      9.1576
C     14.8194      7.6229     15.4864
H      4.5195      5.3363      9.8226
C     14.3053      8.4001     11.0361
C      5.7700     10.7590     10.8752
H      2.7323      3.4009     10.8686
H     16.7646     11.2882     15.8241
C      4.1265      8.4131      4.7205
C      7.7497      7.1416      2.8872
C     20.7958      9.7397     14.4754
C     18.7475      8.4070     14.8704
C      4.2243      6.0799      6.5408
C      1.8494      5.2839      2.3970
C      6.1386      5.6067      0.1395
C      5.5227      7.6583      4.4003
C      7.5773      6.7924      1.2940
C      4.1672      5.0720      7.6075
C     14.4288     -7.6530      0.9991
H      9.0558      6.1381      5.3564
C      6.4533      7.2492      5.5096
H      9.2391      5.5568      0.6415
C      7.2143      5.3167      1.0871
H     -0.9095      3.2720      3.0960
H     10.7745     -5.8527      9.1712
O      7.4763      7.8829      5.5925
H      8.5399      9.1117     11.7543
H      2.2962      2.0499      2.7465
H     13.1282     -2.9292      2.3902
H      4.8687      5.4891      4.5542
C     12.1800      7.5612     11.9703
C     15.5188      6.4312     16.0119
H     14.3451     -5.2320      8.1783
C     -1.6489      4.4589      4.4977
C      0.4571      6.7940      5.2572
H      4.2337      7.6912     10.5319
H      3.5507     -0.0338      5.9371
C      1.2111      5.5126      4.5698
H      3.9787     -0.2640      1.5821
H     12.3705     -5.5644      8.6926
C      7.7557     -6.6337      8.9345
C      4.6168      0.6165      8.1835
O      6.1439      4.2049      5.0968
C      6.2357      7.6414      3.3002
C      9.6731     -2.8681      5.2334
C     12.8684     -6.2812      2.6473
C     -1.4342      6.6666      3.5230
H     17.5425      8.5933     20.6480
H     14.7179      9.2294     11.3859
H     -2.8006      3.1712      6.1029
C      2.3569      0.6689      9.1918
C      0.4373      5.2920      3.1444
C      5.1665      3.4189      2.5396
H     14.2166     -8.7770      7.8100
H      8.5757      8.1081      7.9513
H     10.4294     -0.9112      8.0264
H      1.4597     -0.9663      3.5450
H      7.5329     -1.9897      6.2498
C     14.6866     -6.1491      8.5970
C     -1.5234      5.5241      5.6536
C      4.1332      0.8139      2.1346
C      1.5941      4.4286      5.5224
C     14.8668     -6.3695      7.1518
C     15.0863     -8.6431      0.2799
H     11.5227     -6.7373      0.8106
H      4.5940      2.1899      0.0667
H      1.8787      1.3528     -0.2192
H     11.4412     -1.6171      6.1639
H      5.4359      1.0448      4.4689
C     12.3437     -3.8188      5.2643
C      8.7369     -5.7746      9.5597
H      4.4678      5.2578      1.2930
H     20.5411     10.7752     13.7630
C      8.3116     -0.7813      7.4529
H      9.7910      7.0482      1.7688
H      9.5625     -2.2451      4.4758
H      6.2082      1.7471      9.2039
C     12.4473     -5.5384      7.5331
C      0.4971      3.3759      4.9787
O      8.4769      5.6147      4.6773
C     11.1101     -4.9304      5.5908
C      6.4192      1.8390      7.3731
C      5.4900      2.1083      6.4854
C      3.8075      0.9589      5.7242
H      6.3227      7.4597      7.9689
H      5.3617      3.7130      8.8517
H      8.5065      9.3684      8.6608
H     13.4796     -3.9729      6.6690
C     14.7956     -8.1282      7.0076
H     -1.0524      4.2533      1.9864
C      3.7857      5.4690      5.0951
C      3.4083      2.7581      8.8607
H     20.8231     10.0432     15.4376
C      8.1923      7.3466     11.0435
H      3.5616      5.4509      8.6038
H     10.3556      6.8780     10.9421
H      7.4574      1.9487      7.2132
C      3.8539      3.1237      4.5550
C     17.1746      9.6798     18.6450
C      6.6393     -0.2941      9.0225
C      7.8685      9.0174      7.9464
C      5.5961      4.6388      8.2092
C      6.0612      0.9472      8.3757
H     -0.4736      3.8895      8.9454
H      9.6054     -4.0442      9.2668
H      9.9188     -0.4535      6.1176
H     18.8860      9.4286     13.2495
H      8.8860      6.5988     11.3509
H     -1.3158      3.2444      6.7032
C     14.6590     10.2118     13.7261
H      1.7944      4.1149      9.3487
H      9.8743     -3.3133      2.6385
