262

C      6.8602      9.1240      0.7632
C      4.3837     14.5733      6.8793
C     15.8730      3.1602     14.1678
C      7.3102     18.0164     15.4747
H     10.4985      3.5503      2.6298
C      7.6418     16.6827     15.9246
C      3.0724     17.0182      5.4439
C      6.6671     22.6565     10.5341
C      3.1866     20.2064      6.5525
C      6.1337     15.0317     17.1578
C      6.0527     21.2705     10.0571
C     13.7797      8.8102     13.8176
N     12.8788      2.9212      6.1274
C     13.6757      5.9959     13.5332
C      2.9772     16.9535      6.9163
H     14.1004      6.1641     12.4384
C      2.4596     19.2457      4.3904
C      3.8596     10.4934      3.4565
H      1.3596     13.5359     22.8771
H      9.7516      3.4810      3.9995
H     17.2380      5.4688     16.3860
H      6.3175     24.3029     11.6266
C      4.0246      9.2086      3.1804
H      7.6692     22.8369     10.0075
H      8.3058     16.5695     16.7281
H     11.6274      4.8281      6.5986
C      3.1510     15.5292      7.3783
H      9.7318     10.8712     13.5909
H      7.1539     14.6117     17.6643
O     14.7762     10.3954     15.1576
C      8.1767     12.3003     21.7732
C      6.6525     19.0670      9.5958
H     14.0419      6.6466      9.5654
C      6.4620     15.7278     15.9356
H      6.2678     18.0611      7.0084
H      7.4345     22.4812     11.4075
H      4.3052     10.3644     21.2063
H      4.1374     19.7506     10.0810
C      4.0615     10.6977      4.8004
C      9.9193      8.5787     18.1318
O     14.6338      8.7187      4.8681
C     11.2580      7.7093      7.1338
C      8.7662      8.0282     12.0277
C      7.4592      7.7575      0.0821
C      6.1803     20.0368     12.3437
H     17.6779      4.0236     14.8999
H     15.7650     -0.4994     17.4426
H      8.0075      5.8340      7.9029
C      6.7409     20.1887     10.9001
C      7.7230      6.0378     16.4796
H      8.9632      9.2462      1.4251
C     11.7267      6.8045      5.1446
H      3.3815     21.2681      8.5898
H     17.7882      0.8800     15.4586
H      5.0150     24.0740     10.0643
H      4.1031     19.5358     12.5831
C      9.7386     11.8538     19.8948
C      5.5279     18.4131      9.1323
C      2.9530     20.5973      5.0825
C      4.6299     18.7227     13.4178
C      4.5267      8.9680      1.9258
H      9.1617      7.8905     18.2798
H      8.9165      8.0730     16.0029
H      3.6759     14.4119     23.3509
H      6.2062     12.3714     22.8407
H      5.2552     12.8094      4.3004
C     13.1877      2.8348      8.4509
C     13.3254      8.3358     12.4532
C     15.0007      1.7411      6.9324
C     12.5303      6.7256     14.3514
H      5.3887     20.5581     12.3897
H     11.0131      2.5342      4.7731
H      6.5708     17.4140     17.1129
H      5.2959     23.3241     11.8966
C      9.9600      7.8452     12.8210
O     14.8628     11.2768     13.0548
C      6.6897     21.5237      8.5757
C      3.5788     21.3819      7.5331
C      3.6581     14.2351     22.1742
C     16.2046      1.6824     17.5105
H     10.8173     10.4820     14.4997
H      5.6550     12.6374     19.8676
C     17.0215      3.6404     16.3524
H      8.5133     10.3223     18.5123
C     10.7996      8.8266     13.5767
C     11.0308      7.1870     11.8695
H     10.3290      9.7922     20.2534
C      5.1396     15.9468     18.1064
H      5.4409     12.1845      5.4419
H      8.4753     16.0978     15.2750
H      8.6422     13.3748     21.7740
C      2.4957     12.4090     21.5131
C      4.5426     11.3324     20.9688
C     10.8216      5.2629      3.3397
C      3.0828     22.4472      6.6980
C     15.8137      3.9297     15.5688
C      4.6332     20.8108     10.0697
H      1.7236     11.7636     21.2431
H     15.8007      8.4416     13.9993
H     11.1017      4.8198      1.2958
H     15.2548      3.7849     12.2434
O      5.5445     19.6610      6.7566
C     13.3360      8.0905      4.5809
H      3.2890     23.3026      7.2607
C     10.2715      8.8177     16.4610
C     10.8163      7.7929     15.8660
H      5.5622     21.8909      8.1015
C      9.9086      7.2639      7.6386
H     13.6512      2.6822      4.1861
H     14.7624      7.9531     12.1571
H      6.5066     14.7488     15.0504
H     14.1016      2.9366      8.9367
C     16.5011      1.9019     13.6370
C     12.8246      8.9505      2.0665
C     12.6162      4.1600      4.0433
C      7.1262     11.2660     19.9564
H     14.2782     -0.1904     16.9581
H      9.1352      6.8136      6.9496
H      2.0242     22.4718      6.3552
H     15.0541      6.9883     13.5883
O     12.7746      9.5757      6.3534
C      5.9894     11.9323     20.5792
C     13.5125      6.8020      6.6904
C     14.9809      7.9746     14.1729
H     15.6230      8.5549     15.9003
C     13.4077      7.8697      3.1141
H      9.0470     11.5219     22.0473
C     15.9482      1.1515     16.1979
C     13.6201      2.4245      7.0807
C     10.4052     10.5351     19.2901
C     10.4619      3.5345      4.8677
C      4.5533     12.2512      4.9051
C      2.7084     16.3995     22.6372
C     11.8791      8.0736     14.5016
C      3.7790     12.3377     21.1837
N     15.2426     -0.3828     16.5855
H     14.9669      0.5744     14.1001
C     15.4534      0.9724     13.1889
O     16.9302      6.1546     15.7424
C      9.5002      6.8249     13.8831
H      5.1378     22.9262      6.4698
H     14.8741      0.7990      6.9399
C     10.5773      4.6027      2.2388
C     10.0144      7.3597      9.0699
H     15.0231      2.1266      5.6823
H      7.6460     17.4997     13.4457
H      8.2937     22.3715      6.8477
C     10.2750      9.9861     13.5618
H      4.0548     21.7548     10.0602
H     15.7804      6.1389      9.3178
H     10.2860      5.7921      5.8259
H     11.7917      9.8065      4.6491
H     13.8642      8.8860     10.4714
H     16.2828      0.1956     12.8344
H     12.6513      2.0625      9.0029
C     14.8993      7.7951     15.6584
H      4.4679     18.3869      9.9477
C     14.4399      8.5705     11.3180
C      5.6763     23.7087     10.9988
H      2.7915     15.8269     23.7906
H      4.1049     10.8417      2.3196
C      4.3748     21.5452      4.4542
C      7.9444      7.3152     15.7808
C      7.9396      9.7305      1.5878
C      5.9110      8.4579      1.8444
C      4.1401     18.8508      6.5698
C     14.7611      5.2169     15.4392
C      6.0931     18.9048     13.2520
C      5.6532     20.6331      4.2800
C      8.0067      6.9727     14.1979
C      4.0597     17.7674      7.5705
C     14.4257      4.9397     14.0614
H      9.2503      6.1065     17.5053
C      6.2235     20.3474      5.4982
H      9.6702      5.6488     13.5933
C      7.2225     18.4302     14.0674
H     12.4423      3.3695      2.9671
H     10.8530      6.7680      9.5757
O      7.3158     20.7843      5.7381
H      8.5879      9.0700     11.5012
H     15.1360      2.0860     16.0960
H     12.2900      9.9349      2.1087
H      3.8314     18.2034     13.8355
H      4.5884     18.3568      4.6684
C     12.2677      7.6391     11.8213
H      6.8191     17.4098     18.9060
C     15.6094      6.3416     15.8166
H     15.0853      7.5749      8.0962
C     11.1935      4.6455      4.6398
C     13.1272      6.7818      5.3025
H      4.4336     20.8434     11.1416
H      2.9846     12.8726      5.7528
C      1.1107     18.7642      4.5573
H     16.4732     -0.1910     15.0119
H     12.3292      6.9689      8.6022
C      7.8489      6.1939      8.9399
C      4.5100     13.7736     21.0822
O      6.1487     17.2133     18.0180
C      6.5577      7.9362     16.1404
C      9.5994      9.9996     18.2823
C     12.8990      6.6460      2.8120
C     11.4257      6.5507      3.5329
H      4.5966     21.4698      7.9765
H      9.8073      3.5050      5.9047
C      2.3787     13.3425     22.3750
C     13.2975      5.1856      3.2275
C     18.1313      3.4955     15.7415
H     13.7874      4.5306      7.5419
H      8.2317     20.9175      7.7534
H     10.0178     11.3518     20.8323
H     15.3994     -1.0479     15.7322
H      6.9123     11.0970     19.0138
C     14.8993      6.7064      8.8618
C     11.1526      5.5080      5.7456
C     16.8941      0.7351     15.0520
C      1.5464     17.4730      5.3831
C     14.7352      6.2943      7.3419
C     15.2474      4.1004     13.2154
H     11.9863      5.9001     14.3159
H     17.3773      2.2698     13.0378
H     14.9022      1.3365     12.3107
H     11.5348     10.9336     19.2495
H      5.6479     14.1239     17.1937
C     12.3232      9.0167      5.1708
C      8.7705      7.0195      9.7616
H      7.8065     10.7309      1.0980
C      8.3054     11.9244     20.3351
H      9.8698      7.1557     15.0305
H      9.2202     10.3288     17.4735
H      5.8979     14.7656     22.1154
C     12.5495      7.3198      7.5162
C     13.5623      3.5080      5.0102
O      8.5334      5.5042     17.3582
C     11.3224      8.0138      5.7238
C      6.5477     14.7575     20.3559
C      5.5312     15.3475     19.3895
C      3.7428     13.5042      5.5958
H      6.3810     20.2842      8.1164
H      5.8034     16.4214      8.1204
H     13.4927     10.1622      6.5438
C     14.6616      4.8285      6.8304
C      3.7057     18.4186      5.1293
C      3.2457     15.6496     21.7945
H      7.9026      9.9501      2.6294
C      8.2586      7.1787     11.0446
H      3.2909     17.9100      8.4805
H     10.8723      6.0447     11.7924
C     16.7666      3.0951     17.6214
C      4.2788     22.5215      5.7524
C      6.5873     12.5774     21.8392
C      7.8909     22.0401      7.8478
C      5.5615     17.4633      7.9022
C      6.0423     13.8882     21.3829
H     12.4151      3.5209      8.1411
H      9.7981      8.6080      9.1529
H     10.3818     12.4864     19.4341
H      6.3800      9.8767      0.1200
H      7.9160      6.1083     11.3121
H     12.0956      3.8433      6.6841
C     14.6211     10.3251     13.8965
H      2.2164     17.3020     22.4121
H     10.3763      9.7646     15.9883
