264

C     19.7393      9.2076     13.8411
C      3.9086      1.7480      6.9022
C      2.9628      3.0459      0.9621
C      6.9943      5.2352      2.6774
H     -2.6884      3.0880      2.2636
C      7.4971      3.8232      2.8168
C      3.2266      4.1463      5.6288
C      6.9934     -3.2949     10.5905
C     15.9174      7.4573     19.5735
C      5.9773      2.0519      4.2486
C      6.4052     -4.7119      9.8069
C     14.0745      8.5534     13.8016
N     -0.2637      3.0766      6.0130
C      0.6162      6.0667      0.4264
C      3.2951      4.1574      7.2086
H     -0.0241      6.0307     -0.5403
C     15.5318      6.2966     17.3683
C     16.9415     10.9541     16.3246
H      1.2558     -0.0933      8.9860
H     -2.7970      2.2778      5.5958
H      5.7060      5.2332      2.8244
H      5.8979     -2.3341     11.7953
C     16.7294      9.3994     16.0652
H      7.8068     -3.1059      9.9383
H      8.1003      3.6964      3.5912
H     12.5507      7.1565     10.8982
H     -1.3934      5.0565      7.0339
C      2.9770      2.7208      7.5589
H     -3.8236      9.7135      1.8387
H      6.6576      1.6128      4.9274
O     14.6368     10.6757     14.9887
C      8.2074      0.7573      7.9734
H      2.5656      4.1791     -1.0137
C      6.9386      5.8722      9.9413
H      1.6120      6.1238      9.2693
C      6.4048      2.8318      3.1170
H      6.0682      5.0821      7.4510
H      7.4505     -3.7700     11.3902
H      5.1478     -2.5039      8.0580
H      4.6985     -5.6717      8.8134
C     17.3854     10.8974     17.6252
C     -2.9161      8.3762      5.1806
O      1.8484      8.6490      4.7105
C     -1.5621      7.3525      7.2998
C      8.8163      8.1998     12.2536
C     20.4281      8.0033     13.2405
C      6.3501      7.2347     -0.4852
H      5.5733      4.2096      1.4912
H     16.9072      9.7751     13.9400
H      2.3164     -0.7900      2.9820
H     -4.7749      5.3439      8.4795
C      7.2208      6.6622     11.1520
C      7.5630      6.2888      3.5831
H     20.6828      9.9017     15.4789
C     -1.1496      6.2716      5.1154
H     15.2892      9.3464     20.8101
H      4.4943      1.9450      2.5644
H      6.5512     -1.3742     10.4368
H      3.8371      6.6385     -0.3553
C      9.9026     -1.2299      7.3169
C      5.7797      5.2841      9.6757
C     15.8109      7.6382     17.9843
C      4.3821      6.1030      0.4100
C     17.1960      9.0176     14.5987
H     -4.0382      7.9755      5.7234
H      8.4304      8.2080      3.4537
H      3.8588      0.9674     10.2387
H      7.5502      0.4799      9.5446
H     18.1512     12.9367     17.5864
C     -0.3870      3.1193      8.5217
C     13.3802      8.2328     12.5593
C      1.5510      1.9650      7.3651
C     -0.5373      6.4686      1.2703
H      5.6109      7.9154     -0.6108
H     -3.3506      3.6391      4.8765
H      5.7626      4.6196      6.3265
H      5.6383     -2.5325      9.6374
C      9.9422      7.6855     13.0172
O     14.9930     10.6721     12.9203
C      6.8802     -4.7776      8.3376
C     16.0545      8.7780     20.2310
C      3.4115      1.0814      9.1460
C      3.2787      1.9517      4.5391
H     -2.0060     10.1090      2.3772
H     18.6208     11.9276     18.8139
C      4.0431      3.7858      3.1792
H     -4.0658     10.0982      5.4210
C     -2.2754      8.5749      0.9788
C     10.9986      7.2493     12.0410
H     -2.0956      9.4891      7.1777
C      5.4131      3.0363      5.1878
H     16.9392     11.8390     19.1204
H      7.6206      3.2107      2.0652
H      8.1017      1.3018      7.0233
C      2.6412     -0.7514      7.9111
C      5.0080     -1.5263      8.1414
C     -2.2111      4.7352      3.4150
C     16.0952      9.9992     19.3287
C      2.8967      3.6559      2.2209
C      4.8797     -4.9524      9.7168
H      2.0750     -1.6225      7.6706
H     16.9496      7.8709     14.3401
H     -3.5817      4.6948      1.9890
H      1.1247      3.5773     -0.7804
O      5.2824      7.1327      6.6027
C      0.6256      7.8683      4.5651
H     16.5465     10.7906     19.8714
C     -2.8603      8.3387      3.7800
C     -1.9920      7.5366      3.0794
H      5.9994     -4.3259      7.7453
C     -2.6638      7.9284      7.9660
H      1.2823      2.1012      4.8304
H     14.1520      7.5583     10.8492
H      6.6219      1.9424      2.4136
H     -0.5776      2.4018      9.3540
C      3.9218      1.8470      0.8682
C      0.1233      8.5959      2.0913
C      0.1096      3.7879      3.8829
C      7.2604     -1.5332      7.5816
H      2.9300     -0.5758      4.6580
H     -3.7265      7.6250      7.3761
H     15.2358     10.2948     18.9841
H     15.9694      6.7137     13.6004
O      0.0743      9.3670      6.3687
C      6.3359     -1.1425      8.4852
C      0.6169      6.6889      6.7049
C     15.2014      7.5387     13.9717
H     15.6947      9.3411     16.6383
C      0.9089      7.7864      3.0729
H      9.0634      1.2886      8.3173
C      2.6048      1.0972      3.3705
C      0.1879      2.5346      7.0989
C     -2.2071     10.2636      6.5579
C     -2.6724      2.8196      4.7013
C     17.6990     12.0562     18.3955
C      3.4469      3.2554      9.7657
C     -1.2398      7.9202      1.6660
C      4.1943     -0.5430      7.8814
N      2.3849     -0.2196      3.8403
H      2.4546      1.3328     -0.4865
C      3.2463      0.8573     -0.2505
O     17.3883      6.1129     16.0496
C      9.5497      6.6223      1.1750
H     18.3387      9.6219     18.7987
H      1.4180      0.7950      7.7352
C     -2.6175      4.1350      2.2515
C     -2.6513      7.6371      9.5216
H      1.3166      1.7563      6.3831
H      7.2089      4.9846      0.6660
H      8.9557     -3.6625      8.7739
C     -2.7170      9.7977      1.5458
H      4.3290     -3.9765      9.4344
H      2.9829      7.2376      8.8674
H     -2.7236      5.7163      6.1716
H     -1.0743      9.5409      4.6450
H     14.7234      9.4720     11.1414
H      2.7242     -0.2057      0.0283
H     -0.8616      3.7125      7.9132
C     15.0823      7.3894     15.3881
H      4.8666      5.5497     10.2962
C     14.5452      8.1806     11.6043
C      5.9952     -2.3317     10.7173
H      3.6587      2.8295     10.8853
H     17.0950     11.7840     15.6087
C      4.3105      8.4848      4.3770
C      7.5565      7.5945      2.9039
C     20.3802     10.4549     14.4212
C     18.5407      8.6004     14.8400
C      4.1736      6.3257      6.5793
C      1.6821      4.7200      2.1801
C      5.7807      6.3572      0.4930
C      5.6733      7.5386      4.2788
C      7.9548      7.0655      1.4231
C      4.1349      5.1887      7.8284
C      1.4287      4.8743      0.8589
H      9.2938      6.9778      3.6887
C      6.3242      7.5272      5.5180
H      9.3462      5.8047      0.6061
C      7.0250      5.9362      1.4118
H      0.0946      2.9393      3.3026
H     -1.7505      7.0728      9.7330
O      7.5023      7.3312      6.1032
H      9.0256      9.2100     12.1942
H      1.4464      1.5800      3.1336
H      0.3067      9.6994      2.1331
H      3.9719      5.2389      0.9338
H      4.6994      5.5801      4.8919
C     12.2122      7.8862     11.7759
C     15.8094      6.3126     15.9354
H      1.2297      7.6906      8.3289
C     -1.4201      3.9929      4.3518
C      0.4123      6.4979      5.3391
H      4.6159     -5.1332     10.7032
H      2.7971      0.1576      5.8783
C      1.3212      5.5711      4.6291
H      4.3273      0.3417      1.6520
H     -0.0876      6.6950      8.4523
C     -4.7521      6.1490      9.1944
C      4.5522      0.8611      8.1524
O      6.1041      4.3156      5.3998
C      6.2347      8.1968      3.0707
C     -2.8665      9.8121      5.3227
C     -0.1265      6.4146      2.7216
C     -1.3419      6.2937      3.6601
H     17.2406      8.7836     20.4192
H     15.2504      7.8901     12.4800
H     -2.5195      2.1242      3.8965
C      2.2912      0.2041      8.7451
C      0.7388      5.0488      3.3523
C      5.1853      3.7285      2.5199
H      1.0207      4.6137      8.1118
H      7.9453     -2.5294      8.0653
H     10.5793     -0.3918      7.4718
H     14.3597     10.1716     15.6488
H      6.4005     -1.6521      6.8032
C      2.0018      6.9746      8.6117
C     -1.6379      5.1692      5.8698
C      3.6951      1.1711      2.2250
C      1.6465      4.4271      5.4803
C      1.9396      6.4604      7.2345
C      2.0135      3.9782      0.0877
H     -1.1647      5.7955      0.9686
H      5.0971      2.1895      0.8482
H      3.9252      1.1721     -0.9683
H     -1.1649     10.6258      6.5661
H      5.1549      1.2066      3.7696
C     -0.5189      8.6520      5.0857
C     -3.9059      6.8742      9.9965
H     17.4741      6.1971     14.9196
H     21.0409     10.4513     13.5376
C      8.5331     -0.8548      7.5078
H      9.9174      6.8453      2.2685
H     -2.4891     10.1309      4.3517
C     -0.2741      7.1832      7.5725
C      0.7382      3.1463      5.0181
O      8.8386      6.0978      4.1776
C     -1.6691      7.7310      5.7910
C      6.2619      2.3827      7.4089
C      5.1168      2.4773      6.4339
C      3.2611      1.3271      5.6933
H      7.6621     -5.7942      7.9029
H      5.8943      3.6538      8.2499
H      8.6150     -3.8939      6.8971
H     -0.0646     10.2632      6.0937
C      1.9011      4.9314      7.2551
C      3.7789      5.5671      5.4086
C      3.0570      2.3827      8.9227
H     19.4996     11.0158     14.0172
C      8.3603      7.3719     11.0009
H      3.4755      5.5483      8.6006
H     10.6308      6.7910     11.1903
H      6.9227      3.1338      7.5003
C      3.9304      3.2067      4.4340
C     17.3635      9.6085     18.3399
C      6.8170      0.3088      8.9014
C      8.1083     -3.7127      8.0312
C      5.5528      4.7575      8.3005
C      5.9542      1.5024      8.5906
H      0.5505      3.5040      8.9006
H     -2.3509      8.6290     10.0357
H     19.2266      9.6942     12.9390
C     14.6732     10.0454     13.9438
H      3.4977      4.2808     10.3454
H     -3.4902      9.1015      3.1203
