260

C      6.8805      9.1596     14.0646
C      4.0989      1.7607      6.8886
C      2.9272      3.3172      0.9570
C      7.5019      4.9912      2.5312
H     -2.7955      3.5317      1.5274
C      7.6429      3.6496      2.9244
C      2.9145      4.0313      5.3282
C      6.7788      9.6323     10.8308
C      3.0490      7.1455     19.5756
C      6.1960      2.0520      4.3601
C      6.7398      8.3874     10.0963
C     13.7526      8.9482    -12.2970
N     -0.1918      3.3261      6.4587
C     13.4635      5.8931    -12.3481
C      3.0796      4.0602      6.8495
H     13.7874      5.6863    -13.4048
C      2.6837      6.2807     17.3697
C      3.8705     10.4228     16.6469
H      1.3608      0.4830      9.7579
H     -2.2607      2.4027      3.6609
H      4.4306      5.6556     16.0279
H      6.2175     11.6186     11.0282
C      3.9626      8.9619     16.2560
H      7.1187     10.4742     10.1778
H      7.9740      3.8548      4.1953
H     12.7349      6.7717    -14.9010
H     -1.1140      5.6933      6.5128
C      2.9137      2.5388      7.3832
H      9.6362     10.4650    -13.7533
H      7.1962      1.7629      4.6663
O     15.1316     10.4449    -10.8407
C      8.0336     -0.1443      8.5513
C      6.7933      6.0606      9.6959
H     14.3775      5.5248     -3.8593
C      6.3424      2.6942      2.9531
H      6.1962      5.2047      7.0161
H      7.1834      9.4629     11.7905
H      4.6074     -3.1752      8.0370
H      4.7871      7.3740      9.2054
C      4.5712     10.6317     17.8842
C      9.8155      8.6207     -7.9875
O     14.9258      8.2913     -8.2640
C     11.1089      7.7223     -5.9168
C      8.7124      8.0917     -0.7709
C      7.3889      8.0659     13.1719
C      6.2282      7.3261     12.3501
H      5.6428      3.8254      1.4947
H      3.1115     -0.7136      4.4561
H      8.3196      5.9880     -4.9907
C      6.8569      7.0338     10.7601
C      7.8510      5.9637      3.3698
H      8.7842      9.6449     14.9710
C     -1.2852      6.7519      4.9088
H      2.9178      8.1872     21.3731
H      4.9394      1.6142      2.1930
H      5.6521     11.0994      9.6504
H      3.6782      5.5677     13.1892
C      9.7278     11.9276     -6.0083
C      5.5348      5.6461      9.1870
C      3.0881      7.5028     18.0085
C      4.7299      5.7457     13.7372
C      4.4817      8.9961     14.8942
H      8.9680      8.1512     -7.3080
H      8.5615      7.6131      3.4946
H      3.9746      1.0053     10.3239
H      6.5896     -0.1980      9.9240
H      5.0617     12.6332     16.7375
C      0.2399      2.5626      8.8276
C     13.0128      8.4498    -13.7479
C      1.6334      1.9581      6.9098
C     12.3416      6.3769    -11.5623
H      5.2764      7.8135     12.3406
H     -1.6541      2.4291      5.5154
H      6.9764      3.9582      5.0111
H      4.9785     10.3780     11.8431
C      9.9973      7.5718     -0.0007
O     14.8227     11.0455    -12.9018
C      6.7464      8.4254      8.4484
C      3.3882      8.3054     20.3055
C      3.4470      1.2681      9.2394
C      3.7524      1.5978      4.5594
H     11.0302     10.6926    -12.3238
C      3.9986      3.4486      3.1709
H      8.3728      9.9341     -7.3293
C     10.6040      8.7207    -12.4003
C     10.9837      6.8400    -13.8249
H      9.9671      9.5774     -5.8906
C      5.3675      3.1201      5.3001
H      5.8893     12.1338     18.4945
H      8.7224      3.0262      2.6037
H      8.5952      0.7258      8.4285
C      2.4789     -0.7370      8.2731
C      4.8504     -1.9111      8.1633
C     -2.4621      5.0909      3.2584
C      3.1415      9.7163     19.5569
C      2.8823      3.8074      2.4507
C      5.0686      8.2108     10.1681
H      1.5676     -1.2461      7.6647
H     16.2434      8.2801    -11.9956
H     -2.4890      5.0080      1.1262
H     14.8449      3.7408    -13.6708
O      5.5225      7.0620      6.8392
C     13.5745      8.0441     -8.4240
H      3.2509     10.5963     20.1656
C     10.0262      8.4733     -9.4120
C     10.8237      7.6576    -10.2121
H      5.8874      9.1089      8.4848
C     10.2196      7.1341     -5.0639
H      1.0760      2.6745      4.4382
H     14.5683      7.6723    -14.8771
H      6.7329      1.8597      2.1419
H      0.9867      1.9665      9.4585
C      3.4690      2.0103      0.6336
C     12.8167      8.7970    -10.9994
C     -0.2852      4.1593      4.1292
C      7.1472     -1.5424      6.9278
H      1.6823     -0.3105      3.0568
H      9.1859      6.7407     -4.9650
H      2.2148      9.7897     18.8106
H     15.2453      7.0445    -12.9872
O     13.1634      9.6399     -6.7537
C      6.3205     -1.2961      8.0731
C     13.4259      6.7946     -6.2592
C     15.0263      7.7729    -11.9621
H     15.5483      8.5977    -10.0857
C     13.3348      7.7527     -9.9164
H      8.8742     -0.6300      9.3608
C      3.0220      1.1947      3.4022
C      0.5149      2.7382      7.3931
C     10.1880     10.6099     -6.5966
C     -2.2265      2.7088      4.7212
C      4.9622     12.0143     17.9589
C      2.4979      3.1792     10.0373
C     11.6187      8.0533    -11.3817
C      3.8962     -1.0177      8.0144
N      2.6565     -0.3266      3.4783
H      1.8200      1.3240      0.6867
C      2.6631      0.9585      0.1467
O      4.1452      6.5883     15.6684
C      9.4191      6.8231      1.1181
H      2.0909      1.1102      7.2600
C     -2.1507      4.5205      2.0427
C     10.2705      7.5464     -3.5647
H      1.7941      1.8855      5.8755
H      8.0120      5.1808      0.3748
H      8.1462      9.1190      6.9922
C     10.1913      9.9746    -12.8202
H      4.8392      8.9359      9.3172
H     15.5468      6.6182     -3.6702
H     -2.7376      5.5272      6.5159
H     11.9745      9.8411     -8.3633
H     13.7704      9.2096    -15.3469
H      2.6287      0.0268      0.5339
H     -0.8946      2.3906      9.0101
C     14.8980      7.5405    -10.5153
H      4.9238      5.0420     10.0421
C     14.1895      8.6611    -14.4277
C      5.6223     10.7546     10.8689
H      2.6978      2.3739     11.1614
H      4.3286     11.3194     16.1573
C      4.1902      8.3020      4.6475
C      7.6924      7.2276      2.8505
C      7.9252     10.2110     14.6124
C      5.8670      8.3325     14.8583
C      4.1659      6.1370      6.5568
C      1.8637      4.8804      2.5194
C      5.9689      6.0411     13.2671
C      5.5272      7.3290      4.4307
C      7.8757      7.0745      1.4287
C      4.2301      4.8544      7.4995
C     14.3989      5.0856    -11.8725
H      8.5521      6.2228      5.3051
C      6.2211      7.1680      5.7548
H      9.6007      5.9087      0.5191
C      7.2555      5.6600      1.1196
H     -0.2741      3.2561      3.4459
H     10.8800      7.4512     -2.6233
O      7.5140      7.3874      5.8110
H      8.9856      8.7682     -1.4841
H      1.9169      1.4706      3.4632
H     12.4493      9.6781    -10.4417
H      4.5550      4.9452     14.5187
H      4.4421      5.0907      4.5120
C     12.2319      7.3607    -14.1280
C      2.8236      6.4511     15.9409
H     13.7645      6.9387     -3.8147
C     -1.8839      4.3297      4.6172
C      0.1706      6.6977      5.1924
H      4.6136      7.7930     11.2038
H      2.9353      0.2516      5.5224
C      1.3005      5.8665      4.7007
H      3.6489     -0.0372      1.9950
H     12.1253      6.5910     -4.6432
C      8.1927      6.2618     -3.9353
C      4.2246      0.7392      8.2431
O      6.0862      4.1649      5.1739
C      6.3014      7.7511      3.0620
C      9.4103     10.0081     -7.6847
C     12.7040      6.4871    -10.2150
C     -1.4659      6.3665      3.4629
H      4.3609      8.4783     20.8792
H     14.9902      9.0001    -13.8447
H     -3.4065      2.5693      4.9701
C      2.1655      0.4695      9.0055
C      0.6363      5.2365      3.4786
C      5.2434      3.3812      2.4571
H     14.3134      4.1517     -5.3962
H      8.8276      8.2906      8.2699
H     10.4008     11.9458     -5.0765
H      7.0262     -2.2248      6.1052
C     14.7194      6.5494     -4.2607
C     -1.7932      5.5182      5.6366
C      3.9614      1.1332      1.9760
C      1.4283      4.5277      5.5064
C     14.7865      6.4599     -5.7532
C     15.1447      4.1779    -12.7319
H     11.5748      5.6058    -11.6871
H      4.4220      2.1963      0.1294
H      2.3139      1.2622     -0.8738
H     11.3819     11.0956     -6.8709
C     12.4595      9.0381     -7.7371
C      8.9621      6.8394     -3.0804
H      4.3131      6.5446     14.5228
C      8.3335     -0.9496      7.2635
H     10.0902      7.2922      1.8720
H      9.6952     10.8913     -8.2279
H      5.6785      1.9539      9.0675
C     12.3436      7.3219     -5.3493
C      0.5232      3.4418      5.2104
O      8.5824      5.5490      4.5248
C     11.1444      8.1047     -7.3152
C      6.4172      1.9316      7.2578
C      5.3538      2.3328      6.4902
C      3.7661      0.8253      5.6850
H      6.3036      7.5039      7.9112
H      6.0622      3.6683      7.7309
H     13.4073      8.9728     -6.0644
C     14.8182      4.8457     -5.9326
H     -1.0786      4.2389      1.8950
C      3.6254      5.4569      5.1389
C      3.1888      2.6675      9.1328
H      7.3089     11.1069     14.7505
C      8.2887      6.9609     -1.8391
H      3.8075      5.3034      8.5261
H     10.5654      6.4239    -14.6180
H      7.1704      1.6775      6.5889
C      4.0121      3.0098      4.7488
C      4.3199      9.4761     18.5624
C      6.6154     -0.1805      8.9606
C      8.1089      9.0519      8.1156
C      5.6080      4.6349      8.0064
C      5.7287      1.0782      8.4621
H      0.4548      3.5491      9.2806
H     10.3091      8.7054     -3.6476
H      6.1074      9.8827     13.4527
H      8.4926      5.8220     -1.3637
H     -0.8128      4.0019      6.9624
C     14.4383     10.2978    -11.8503
H      2.4287      4.3320     10.5826
H      9.9762      9.3915     -9.9027
