260

C     32.6868     -3.6829     13.8783
C      4.0012      1.5344      6.7336
C      3.1157      3.4393      1.0773
C      6.9371      5.0569      2.4657
H     10.5358     -9.5804      2.4211
C      7.3756      3.7289      2.5535
C     16.3081     -8.6549      5.3414
C     20.0195     -3.4839     10.9182
C     28.9638     -5.6530     19.4536
C      6.1295      2.1215      3.9321
C     19.5023     -4.6542     10.0544
C     26.4177     -4.0263     13.5662
N     -0.1204      3.0551      6.3321
C      0.3587      5.6553      0.6910
C     16.1657     -8.8435      6.7889
H      0.2753      5.6131     -0.3460
C     28.5613     -6.4525     17.4045
C     29.6432     -2.0782     16.5268
H      1.0432      0.3624      9.0185
H     10.1730    -10.4577      5.1681
H     19.1396     -2.0376      9.9388
C     29.7790     -3.4152     16.1511
H     21.0720     -3.3575     10.3579
H      7.6207      3.6808      3.4944
H     25.3925     -5.2430     10.6819
H     11.9366     -8.0085      6.3404
C      2.9698      2.6901      7.3848
H     -2.6109     10.8950      0.4332
H      7.2814      2.0538      4.5440
O     27.5586     -2.7669     14.9857
C      8.0101      0.1531      8.4970
C     19.6547     -6.9566      9.9784
H      1.8126      5.5931      9.1508
C      6.1327      2.8531      2.6485
H     19.3344     -7.6038      7.2315
H     19.7220     -4.1313     11.7435
H      5.1266     -2.8208      8.8181
H     17.5423     -5.3384     10.6377
C     30.3325     -2.0365     17.7770
C      9.9200     -4.2718      5.0378
O      1.9041      8.5093      5.0814
C     -1.6468      7.7855      7.2346
C     21.6706     -4.8849     12.3676
C     33.4569     -5.0709     13.2558
C      6.3331      7.4034     -0.4823
H      5.1423      4.0183      1.2604
H      1.9053      0.1140      4.6899
H     -4.8212      5.7664      8.2261
C     19.8481     -5.9973     11.0346
C      7.5926      5.9937      3.3820
H     34.3678     -3.1530     15.1819
C     11.6486     -6.4566      5.1829
H     28.3691     -4.1744     21.1206
H      4.2978      0.3532      2.4999
H     18.1582     -2.9871     10.5913
H      3.9030      7.1926      0.5591
C      9.9627     -1.4480      7.3602
C     18.5516     -7.4725      9.4381
C     28.8976     -5.1289     18.0542
C      4.6172      6.3172      0.6800
C     30.3340     -3.8104     14.8565
H      8.8974     -4.7069      5.3474
H      8.1398      8.1577      3.3903
H      3.6435      1.1014     10.2655
H      6.7790     -0.1496     10.1174
H     30.6926      0.0327     17.4127
C     -0.0579      2.5739      8.6297
C     25.9014     -4.2815     12.3103
C      1.6511      1.7764      6.9679
C     -0.5201      6.2253      1.4660
H      5.3322      7.9943     -0.4551
H      8.9537     -9.4327      4.1263
H      5.7319      4.8650      4.6859
H     19.0271     -1.3285     11.5989
C     22.9149     -5.2257     13.0788
O     27.6505     -2.0925     12.5906
C     19.8449     -4.3476      8.7557
C     28.9120     -4.3266     20.2278
C      3.3928      1.2731      9.0841
C      3.2739      1.8334      4.5231
H     -1.1047     10.6841      0.7489
H      6.3623     -0.5950      7.1288
C      3.9081      3.6014      3.2489
H      8.9652     -2.4479      4.9504
C     -2.1583      8.7908      0.9510
C     23.7804     -6.0415     12.1641
H     10.6140     -3.4129      7.1625
C      5.3377      2.9041      5.0239
H     30.7418     -1.2924     19.3859
H      8.4201      3.3506      2.0325
H      7.7386      0.4653      7.3249
C      2.5292     -0.8328      8.4598
C      5.0342     -1.6307      8.3282
C     10.5769     -7.7691      3.3496
C     29.1682     -2.9669     19.5192
C      2.7165      3.8590      2.2278
C     18.0288     -5.0426      9.7745
H      2.1351     -1.8883      8.4292
H     28.5331     -4.9531     13.2229
H     11.5622     -8.3931      1.6261
H      1.9893      2.9320     -0.3657
O      5.4858      6.9369      6.4923
C      0.6201      7.8930      4.7157
H     28.9719     -2.2312     20.2216
C     10.2751     -4.1612      3.7057
C     10.6588     -5.3354      3.1010
H     19.3129     -3.4731      8.3805
C     -2.8610      7.3920      7.7688
H      0.5309      2.1774      4.6079
H     27.0757     -4.8085     10.4210
H      6.0670      2.0808      1.9480
H     -0.4903      1.7796      9.1823
C      3.8158      2.1725      0.8736
C     -0.1962      8.6639      2.4427
C     -0.1765      4.0273      3.7733
C      7.5338     -1.9314      7.8505
H      1.0268      0.1091      3.2898
H     -3.7392      7.1997      6.9864
H     28.2491     -2.7903     18.8715
H     27.1035     -6.0323     13.0456
O      0.3383      9.6696      6.1614
C      6.2946     -1.1771      7.9539
C      0.5925      6.8369      6.7436
C     27.5453     -5.1824     13.5670
H     28.6820     -4.3086     15.8245
C      0.6986      7.7297      2.9785
H      8.6580      0.9530      8.6089
C      2.7747      1.4164      3.1597
C      0.4222      2.3163      7.2444
C     10.4600     -2.5965      6.6585
C     10.1355     -9.7338      4.1833
C     30.7418     -0.8651     18.3764
C      2.7832      3.6237      9.7435
C     -1.4249      8.0010      1.9207
C      4.0747     -0.7173      8.2325
N      2.0392      0.2398      3.4991
H      2.3786      0.9980      0.1257
C      3.2432      1.5833     -0.2728
O     30.2621     -6.5515     15.5748
C      9.2716      6.7814      1.3669
H     31.2743     -3.2784     18.9364
H      1.8471      0.8449      7.6134
C     10.5307     -8.4302      2.2973
C     -2.8566      7.3195      9.5423
H      1.5318      1.7823      5.9774
H      7.9407      4.9951      0.5410
H     21.7702     -3.9692      7.4741
C     -1.9269     10.0823      0.6685
H     18.1983     -6.1230      9.1032
H      3.2484      6.7389      8.8252
H      9.8566     -7.0987      5.9459
H     -1.0747      9.7549      4.3867
H     26.7342     -3.0869     11.2135
H      3.8501      0.6288     -0.2090
C     27.8879     -5.2079     15.2765
H     17.4841     -7.7465     10.1375
C     27.0632     -4.1277     11.3435
C     19.0420     -2.3623     10.9480
H      2.7573      3.0793     10.6473
H     29.4440     -1.1182     16.0407
C      4.1442      8.7066      4.7242
C      7.5390      7.4068      2.9466
C     33.6551     -2.5747     14.6018
C     31.5388     -4.4126     14.6800
C      4.3516      6.1543      6.3078
C      1.9894      5.1199      2.2946
C      5.8730      6.2578      0.2557
C      5.6398      7.9052      4.3772
C      7.9327      6.8916      1.3575
C     17.2293     -7.8536      7.4619
C      1.5229      4.9303      0.8404
H      8.9100      6.6554      4.4973
C      6.4223      7.2094      5.4860
H      9.7573      5.8262      1.4950
C      7.1374      5.5729      1.0378
H     -0.2258      3.3262      2.9621
H     -1.8820      6.9180      9.9385
O      7.7426      7.0237      5.7260
H     21.4762     -4.0504     11.6383
H      1.8783      2.1172      2.8100
H     -0.2343      9.8409      2.5793
H      4.1377      5.4169      0.7390
H      4.6978      5.9428      4.0851
C     24.8708     -5.1080     11.7648
C     28.7764     -6.5706     15.6776
H      1.4298      7.3393      8.5451
C     10.9027     -8.5806      4.5474
C     13.2316     -6.3233      5.2962
H     17.9856     -4.1120      9.4156
H      3.0799     -0.1873      6.0581
C     14.3293     -7.1023      4.8106
H     -0.2169      6.3853      8.6573
C     -4.8822      5.9232      9.3388
C      4.4606      0.6995      8.1547
O      6.1022      4.0958      4.9750
C      6.1227      7.8832      3.0962
C      9.8402     -2.8243      5.3622
C     -0.1414      6.3805      2.9092
C     11.3716     -6.5204      3.6581
H     29.9435     -4.4149     20.7590
H     28.1796     -4.0388     11.5635
H     10.5402    -10.2424      3.1650
C      2.1887      0.2835      8.8609
C      0.8290      5.2304      3.4397
C      5.0646      3.7304      2.4612
H      0.8895      4.4577      7.5786
H     21.8657     -4.7179      8.4638
H     10.5667     -0.6263      7.6077
H      7.8251     -2.4751      6.7442
C      2.1953      6.4715      8.6645
C     10.9989     -7.6187      5.9514
C      3.5637      1.0024      1.9320
C     14.7249     -8.6351      5.3572
C      1.8657      6.1691      7.0499
C      2.2389      4.0002      0.0924
H     -1.5739      6.3808      1.0395
H      4.9624      2.5248      0.8402
H      3.3835      2.2917     -0.9720
H     11.5381     -2.8647      6.6358
H      5.5559      1.1314      4.0225
C     -0.5975      8.9300      5.1730
C     -3.9755      6.6871     10.1068
H     34.0925     -2.2474     13.7757
C      8.7646     -1.2693      8.3661
H      9.5929      7.0120      2.5564
H     10.8904     -2.3103      5.0261
H      5.6815      1.9730      9.1998
H     28.5850     -1.3208     12.6771
C     -0.3192      7.1227      7.8066
C      0.6703      3.2338      4.9770
O      8.5420      5.6681      4.2876
C     -1.6590      7.9762      5.8177
C      6.0755      2.1973      7.3056
C      5.3009      2.0156      6.2062
C      3.3746      0.9185      5.5786
H     19.5054     -4.8872      7.9792
H     21.6828     -3.3327      9.2292
H      0.6731      8.9471      6.6638
C      1.7596      4.6418      6.8397
C      3.8782      5.6381      4.7930
C      3.2519      2.6979      8.8591
H     32.9187     -1.7515     14.7269
C     21.3848     -6.1508     11.3293
H     16.9005     -7.3599      8.5132
H     23.9608     -7.0964     11.7243
H      6.9692      2.7629      6.9927
C      3.9066      3.1313      4.6083
C     30.2725     -3.2735     18.7179
C      6.6567      0.0802      9.0320
C     21.2110     -3.8464      8.4099
C     18.7006     -8.0490      8.0050
C      5.7480      1.2766      8.5014
H      1.0244      2.3936      9.1242
H     -3.4599      8.2655     10.1245
H      9.6637     -0.7913      6.4030
H     32.2614     -3.1227     13.0686
H     21.5528     -7.1599     11.9533
C     27.3961     -2.7551     13.7323
H      3.1064      4.5251      9.8593
H     10.6269     -3.1275      3.4052
