266

C     19.5861      8.9552     13.7282
C      4.2437      1.7105      7.0981
C      2.7535      2.9949      1.4617
C      6.7805      4.8223      2.2083
H     -3.5381      3.9075      3.5490
C      7.3348      3.5405      2.5610
C      3.1346      4.1655      5.4729
C      6.5464      9.7388     10.4928
C     15.9816      7.2818     19.3579
C      6.2353      2.1851      4.2211
C      6.1459      8.4056      9.9627
C     13.7094      8.9105     13.8457
N     -0.1433      3.1167      6.2469
C     13.5606     -6.9864      0.6399
C      3.1143      4.2096      6.8839
C     15.5395      6.3907     17.2507
C     16.5753     10.7239     16.6196
H      1.6694      0.6945      9.8481
H     -2.5564      3.2574      6.2830
H      6.1149      6.2600      3.6633
H      6.2722     11.4745     11.5088
C     16.5604      9.2343     16.1087
H      6.6636     10.1843      9.6330
H      7.8374      3.6074      3.6117
H     12.8186      7.4592     11.0883
H     -1.5207      5.3228      6.7327
C      2.7520      2.9237      7.6693
H     10.0064     -2.4130      0.1028
H      7.2715      2.2669      4.4487
O     14.3393     10.8030     15.1751
C      8.1230     -0.0629      8.7290
C      6.9824      6.0262      9.8613
H     15.5912     -5.9155      9.6006
C      6.4211      2.4091      2.6949
H      6.1384      4.5231      7.5281
H      7.2996      9.8232     11.3458
H      4.4703     -2.4917      8.3753
H      4.1686      7.5271      9.4094
C     17.6999     10.8198     17.4306
C     10.2046     -4.4371      4.8211
O     14.7984     -4.3624      4.9555
C     11.2318     -5.2171      7.0045
C      8.7578      8.3792     12.1126
C     20.3888      7.9068     12.9858
C      6.4748      7.3378     -0.7944
H      5.1282      4.0509      1.5435
H      1.5895     -0.6182      3.7430
H      8.5179     -7.4045      8.1812
C      6.9611      7.2706     10.8060
C      7.5319      5.6616      3.0670
H     21.8182      9.2677     14.2265
C     -1.1775      6.6326      5.0189
H     15.1261      9.2165     20.2242
H      4.3268      0.5393      2.5570
H      5.0375     10.8348     10.1300
H     14.8255      7.3510     13.6761
C      9.8089     -1.1010      7.2126
C      5.5527      5.4381      9.5146
O      5.0869      3.0848     10.3891
C     16.0479      7.5843     17.8793
C      4.3132      6.1005     -0.0082
C     17.2931      9.1655     14.8951
H      9.2299     -5.1673      4.8160
H      8.4392      7.8907      2.6417
H      3.7073      1.1288     10.4120
H      6.5818     -0.6514      9.8230
H     17.9045     12.8311     16.9601
C      0.0916      3.4430      8.4864
C     13.4094      8.5202     12.4714
C      1.7230      2.0115      7.1125
C     12.3535     -6.5665      1.3364
H      5.6310      8.0099     -0.8892
H     -3.2240      3.5900      5.0096
H      6.0579      4.3434      4.0684
C      9.8340      7.9318     13.1004
O     15.1799     10.9200     13.0935
C      6.2138      8.2990      8.4978
C     16.2251      8.8142     19.9359
C      3.5485      1.3767      9.3069
C      3.5843      1.4740      4.7501
H     11.2975     -2.4848      1.6408
H      5.9487     -0.6207      6.7663
C      4.0792      3.4949      3.1964
H      8.7268     -2.8259      5.3389
C     10.9000     -4.2782      0.7746
C     10.9323      7.2925     12.2361
H     10.0791     -3.2521      7.8157
C      5.4927      3.0288      5.1866
H     18.8730     11.9095     18.5049
H      8.6563      0.5410      8.0334
C      2.6451     -0.8555      8.9196
C      4.7837     -1.6656      7.7975
C     -2.2386      5.0937      3.5308
C     16.5260      9.8445     19.1272
C      2.4984      3.3319      2.7064
C      4.7230      8.0622     10.1505
H      2.5425     -1.9215      9.4755
H     15.9640      8.7905     13.8257
H     -4.1585      5.5663      2.6568
H     15.4904     -9.0670     -0.5983
O      5.4279      7.1023      6.3325
C     13.5036     -4.7091      4.4658
H     17.1740     10.5392     19.7510
C     10.1150     -4.2801      3.4373
C     10.6759     -5.3230      2.7794
H      5.4825      9.1093      8.0757
C      9.9970     -5.0831      7.5141
H      1.1514      2.6931      4.7226
H     14.7250      7.1994     11.6592
H      6.3384      1.2460      2.7952
H      0.9759      3.6501      8.9611
C      3.3077      1.6702      1.2124
C     12.7335     -4.2427      2.2515
O      6.7755      4.6072     11.1919
C     -0.2657      4.1249      4.1247
C      7.3090     -1.8542      7.4657
H      2.7304     -0.7540      5.0162
H      9.1289     -5.2401      6.7225
H     15.6133     10.4013     18.9080
H     13.6836     -7.4817     -0.3667
O     12.9820     -3.6903      6.4847
C      6.1964     -0.9924      7.7689
C     13.4187     -6.0478      6.6746
C     15.0023      8.2044     14.1644
C     13.4949     -5.3477      2.9857
H      8.6046     -0.9352      9.3660
C      2.7295      0.9767      3.8608
C      0.3712      2.3237      7.3235
C     10.2717     -2.5657      6.8416
C     -2.3043      3.1308      5.0946
C     18.1617     12.0088     17.7421
C      2.9421      3.7023      9.8884
C     11.6320     -5.2021      1.6594
C      3.8046     -0.4565      8.1608
N      2.0633     -0.0667      4.4026
H      2.4379      1.7436     -0.5094
C      2.9249      1.0555     -0.0310
O     16.9731      5.9051     15.1559
C      9.2614      6.8466      0.8788
H     18.7962      9.4361     18.7097
H     -0.3964      1.6098      7.2813
C     -3.1491      4.6711      2.6354
C     10.0405     -5.0675      9.0632
H      2.0120      1.3860      6.1120
H      7.5064      4.8538      0.2588
H      6.6730      8.4936      6.7248
C     10.5368     -2.8514      1.0522
H      4.2950      9.0290     10.3842
H     14.0533     -5.4015      8.9685
H     -2.7721      5.7699      5.9514
H     12.0503     -3.1290      4.5926
H      2.6552      0.0595      0.1496
H     -0.3110      3.0264      9.3674
C     14.8597      7.4799     15.4719
H      4.6878      6.2741      9.6611
C     14.7016      8.2154     11.8058
C      5.5464     10.5754     11.0871
H      3.0123      3.5238     11.1602
H     15.7834     11.1210     17.2336
C      4.2860      8.3449      4.4067
C      7.3906      7.0555      2.5771
C     20.7344      9.5964     14.5066
C     18.5636      8.4655     14.8478
C      4.3263      6.3309      6.4069
C      1.9660      4.8731      2.6777
C      5.8312      6.3558      0.3200
C      5.3507      7.3214      3.9942
C      7.8226      6.8266      1.1138
C      4.0350      5.2607      7.6196
C     14.4865     -7.9494      1.2166
H      8.7386      5.8600      4.6380
C      6.2095      7.2235      5.2074
H      9.4261      5.6236      0.7253
C      6.9599      5.5494      0.8250
H     -0.2114      3.4133      3.3473
H     10.9355     -5.3991      9.6529
O      7.3414      7.4587      5.4095
H      8.5039      9.5254     12.2513
H      1.7510      2.5393      3.2967
H     12.5083     -3.2046      2.6647
H      3.6020      5.2919      0.3485
H      4.6952      5.5466      4.3910
C     12.4736      7.6024     12.0874
C     15.8228      6.1534     15.7900
H     14.1619     -6.7911      9.0297
C     -1.7217      4.3419      4.5409
C      0.3263      6.8858      5.2125
H      4.9786      7.1763     10.7448
H      4.2304     -0.1247      5.8191
C      1.2698      5.8710      4.6002
H      3.0863     -0.2621      2.0957
H     16.3660     11.3056     15.6344
H     12.3141     -6.0216      8.6915
C      8.2075     -6.5713      8.9014
C      4.4891      0.8859      8.4368
O      5.9386      4.2204      5.1591
C      6.1622      7.6711      2.8435
C      9.9109     -2.9319      5.4882
C     12.7356     -6.6007      2.7719
C     -1.6812      6.4787      3.5690
H     17.3078      8.8506     20.5020
H     15.7275      8.4446     12.1433
H      3.7415      7.1041     -0.2089
H     -2.0002      2.2632      4.2864
C      2.4746      0.3161      9.4213
C      0.6152      5.3434      3.3887
C      5.0922      3.1153      2.3320
H     13.8992     -8.2981      7.5678
H      8.0543     -5.1140      9.3222
C      5.5821      4.2166     10.5685
H     10.3049     -0.5320      7.9749
H     13.3670     10.6612     15.3342
H      7.4917     -2.4063      6.6530
C     14.9767     -6.0953      8.6724
C     -1.8409      5.2979      5.6834
C      3.2686      0.6522      2.4854
C      1.5578      4.6405      5.4320
C     14.8324     -6.3538      7.0733
C     15.5272     -8.8003      0.5389
H     11.3241     -7.0162      0.9435
H      4.6109      1.8956      1.2262
H      3.7482      0.7304     -0.7160
H     11.3332     -2.2376      7.0357
H      5.7842      1.3248      4.3727
C     12.4456     -3.8713      5.1438
C      8.8921     -5.6464      9.6872
H     16.9515      6.8934     14.8952
H     20.7059     10.7789     14.2399
C      8.4476     -1.2439      7.6908
H     10.1423      6.7104      1.7573
H     10.4245     -2.2903      4.6825
H      5.9098      1.7634      9.5742
C     12.4081     -5.8409      7.6169
C      0.6179      3.4724      5.1618
O      7.8970      5.7002      4.4130
C     11.3268     -4.9234      5.5335
C      6.4259      1.9029      7.4163
C      5.5040      2.3300      6.6926
C      3.6116      0.9340      6.1331
H      5.9171      7.2458      8.3208
H      5.2796      3.6259      8.6042
H      8.1213      9.0547      7.7311
H     12.0984     -3.4970      6.8332
C     14.6569     -7.8013      6.9386
C      3.8357      5.5127      5.2305
C      3.1019      2.6294      9.1052
H     20.5569     10.0744     15.5123
C      8.4977      7.3749     11.1612
H      3.5183      5.5689      8.4492
H     10.2665      6.2511     12.5366
H      7.0850      1.2579      6.8730
C      3.9032      3.1180      4.6187
C     17.6647      9.4886     18.1173
C      6.6679     -0.1408      8.9559
C      7.2095      8.6712      7.6044
C      5.2868      4.6813      8.0586
C      6.0356      1.1696      8.5765
H      0.0525      4.6824      8.0233
H      9.6316     -3.9176      9.2276
H      9.3856     -0.1836      6.6647
H     19.3035      9.6980     12.9782
H      8.7501      6.4355     11.6374
H     -0.9720      3.5746      6.3297
C     14.3835     10.4559     13.9237
H      2.4851      4.6659      9.5860
H      9.9368     -3.2499      3.3089
266

C     19.6737      9.0188     13.7811
C      4.1820      1.8001      7.1325
C      2.8072      2.9272      1.2308
C      6.8845      4.8471      2.3747
H     -3.0121      3.8008      2.7044
C      7.3345      3.4217      2.6139
C      3.0870      4.0761      5.3255
C      6.6713      9.7940     10.6497
C     15.8728      7.3016     19.3628
C      6.1901      2.1043      4.3324
C      6.3127      8.4531     10.1495
C     13.7516      8.7862     13.8149
N     -0.1058      2.9885      6.2662
C     13.4310     -7.1280      0.5291
C      3.1027      4.2224      7.0296
C     15.7273      6.1282     17.2035
C     16.7129     10.6569     16.6303
H      1.6338      0.9996      9.5415
H     -1.7668      2.2801      5.5140
H      4.5460      6.1729      3.8949
H      5.9973     11.7835     11.4736
C     16.6415      9.2551     16.2113
H      7.2750     10.4552      9.9626
H      8.2509      3.5429      3.4131
H     12.5181      7.2559     10.8387
H     -1.6729      5.5700      6.8644
C      2.7205      2.9262      7.7806
H      9.5778     -2.1931      0.3268
H      7.1571      2.5130      4.3956
O     14.3676     10.8863     15.1496
C      8.0608     -0.1072      8.6273
C      6.8727      6.0205      9.7881
H     15.9685     -6.6356      9.0465
C      6.2344      2.3983      2.7327
H      5.9677      4.3349      7.1735
H      7.3695      9.7664     11.3162
H      4.9596     -2.5894      8.6558
H      4.2949      7.8003      9.3250
C     17.7411     10.8132     17.5140
C     10.0350     -4.3504      4.8998
O     14.7338     -4.4256      4.7268
C     11.1554     -5.3624      6.8978
C      8.5524      8.2919     12.3446
C     20.3171      7.9451     13.1617
C      6.2797      7.4615     -0.7554
H      5.2283      3.6810      1.4355
H     17.7505     10.1722     14.5891
H      2.3685     -0.7102      3.6840
H      7.9510     -6.8682      8.0386
C      6.8162      7.1848     10.8505
C      7.6032      5.6616      3.1464
H     21.7081      9.3518     14.6037
C     -1.2220      6.5389      4.9036
H     15.3543      9.2982     20.5206
H      4.3488      0.4378      2.6376
H      5.1602     10.8510      9.7820
H     15.4485      7.7852     13.0757
C      9.8234     -0.9492      7.1725
C      5.7558      5.1699      9.4355
O      5.0227      3.2115     10.4821
C     15.7874      7.5610     17.8177
C      4.3048      6.2837      0.2852
C     17.3464      9.2018     15.0000
H      9.1262     -5.1664      5.2922
H      7.9976      7.5646      3.4680
H      3.9638      1.4533     10.4579
H      6.3999     -0.6559      9.8313
H     17.9117     12.7004     16.8009
C     -0.2249      3.3908      8.5416
C     13.3836      8.3785     12.2767
C      1.9093      1.9613      7.1694
C     12.3111     -6.4802      1.3014
H      5.3802      8.0060     -0.5613
H     -3.3956      3.2893      4.8136
H      6.9349      4.0640      4.8248
H      4.8434     10.6030     11.6633
C      9.8211      7.8934     13.1999
O     15.0588     10.9275     12.9257
C      6.4017      8.4874      8.6045
C     16.1476      8.6716     19.9997
C      3.6022      1.4766      9.4564
C      3.3990      1.6519      4.8819
H     11.1248     -2.0178      1.1976
H      5.6330     -0.7250      6.8424
H      7.1069      3.6917     11.9692
C      4.0024      3.0558      3.0099
H      8.6156     -2.7707      5.4402
C     10.6146     -4.2091      1.0446
C     10.7204      7.6256     11.9562
H     10.1868     -2.8549      7.3544
C      5.4446      2.9370      5.3043
H     18.7515     12.4491     18.2389
H      8.4816      0.8334      8.1793
C      2.7255     -0.7109      8.6143
C      4.8434     -1.6703      8.2922
C     -2.3050      5.0405      3.5154
C     16.7822      9.7697     19.3017
C      2.6854      3.4908      2.6196
C      4.8689      7.9000     10.2026
H      2.1834     -1.3337      9.2875
H     16.4407      8.8409     14.3829
H     -3.1092      4.8297      1.5710
H     15.4096     -8.5811     -0.7895
O      5.7017      6.8418      6.4450
C     13.4531     -4.8391      4.4379
H     17.6983     10.2665     19.6147
C     10.1916     -4.4567      3.4494
C     10.7604     -5.4631      2.8500
H      5.3728      8.9360      8.2937
C     10.0476     -5.4108      7.7262
H      0.8375      2.8010      4.4913
H     15.2588      7.2301     11.8752
H      6.0770      1.5764      2.0246
H      0.4998      3.9408      9.0302
C      3.5352      1.5778      1.3942
C     12.7878     -4.2729      2.0132
O      6.6890      4.6208     11.4482
C     -0.3038      4.1260      3.9656
C      7.4510     -1.6514      7.3353
H      2.7966     -0.3408      5.2566
H      9.3135     -4.9086      7.3860
H     15.6896     10.3061     18.7680
H     13.3911     -6.9344     -0.5094
O     12.6037     -3.5951      6.7649
C      6.2397     -1.2256      7.7642
C     13.5493     -5.9241      6.7919
C     15.0619      7.9025     13.9687
H     15.6680      8.5813     16.4979
C     13.4509     -5.2998      2.9136
H      8.2004     -0.2051      9.7458
C      2.8361      0.9544      3.7633
C      0.2465      2.3966      7.3792
C     10.3916     -2.2756      6.5276
C     -2.2474      3.0187      4.7501
C     17.9804     12.1157     17.5999
C      2.5846      3.8164     10.1789
C     11.6229     -5.0360      1.5794
C      4.0828     -0.5868      8.3060
N      2.2387     -0.0024      4.3540
C      3.4062      0.9430     -0.1176
O     17.1545      5.8495     15.3552
C      9.3814      6.4930      1.0612
H     18.7572      9.1959     18.6075
H     -0.2376      1.5475      7.7634
C     -3.1945      4.7858      2.6315
C     10.3028     -5.0308      9.1168
H      2.1958      2.0839      6.1574
H      7.3247      4.9063      0.0896
H      7.2305      8.8412      6.7632
C     10.4764     -2.7785      0.7318
H      4.1818      8.5409     10.8297
H     15.0687     -5.4641      9.0068
H     -2.8790      5.6067      5.7072
H     11.9380     -3.1566      4.8078
H     14.2541      8.3083     10.6238
H      2.6178      0.4301     -0.4703
H     -0.5210      2.7961      9.4538
C     14.9473      7.2107     15.2563
H      4.8826      5.6730      9.4588
C     14.7997      8.1615     11.4190
C      5.6195     10.7855     10.8974
H      3.1743      3.4725     11.1007
H     15.8152     11.0533     17.0772
C      4.1375      8.3842      4.5100
C      7.4701      7.0382      2.6395
C     20.6297      9.4751     14.8815
C     18.4759      8.4349     14.6865
C      4.2350      6.3239      6.4749
C      1.8850      4.9310      2.4550
C      5.6042      6.2353      0.2836
C      5.1653      7.2817      4.1683
C      7.7083      6.8118      1.0865
C      4.1785      5.0566      7.5433
C     14.6172     -7.7776      1.0038
H      8.1247      6.4258      4.9339
C      6.1593      7.3822      5.3030
C      6.8248      5.5260      0.8948
H     -0.7886      3.4396      3.0972
H     10.8201     -5.4905     10.1069
O      7.3128      7.7721      5.3649
H      8.5193      9.2356     12.0069
H      1.6626      2.9808      2.9457
H     12.5276     -3.4783      2.6254
H      3.8570      5.2746      0.5674
H      4.6653      5.0553      4.4322
C     12.2287      7.4646     11.9397
C     15.6568      6.1331     15.8022
H     13.8461     -6.6036      8.8968
C     -1.6511      4.3780      4.7004
C      0.2741      6.6845      5.3165
H      4.7982      6.9100     10.9834
H      3.5113     -0.2265      6.3472
C      1.3431      5.6888      4.6120
H      2.9475     -0.3599      1.6591
H     16.7819     11.3651     15.7103
H     12.0793     -6.2576      8.4191
C      8.0551     -6.6415      9.1615
C      4.3717      1.0430      8.3479
O      6.1026      4.1931      5.0990
C      5.9894      7.5947      2.7628
C      9.9037     -2.7838      5.1777
C     12.6622     -6.6255      2.7355
C     -1.6047      6.3312      3.5006
H     17.0409      8.0955     20.5530
H     15.5313      9.1785     11.5432
H     -1.9850      2.3810      3.8492
C      2.5809      0.4038      9.4222
C      0.7621      5.2530      3.3541
C      5.2398      3.4834      2.5020
H     13.9866     -8.5130      7.5009
H      8.2922     -4.7585      9.5798
C      5.7085      4.1777     10.5337
H     10.4860     -0.4482      7.7313
H      7.4707     -2.2394      6.4206
C     14.8944     -6.4134      8.6713
C     -1.8877      5.5530      5.7797
C      3.2737      0.5726      2.4090
C      1.4334      4.5799      5.5406
C     14.8475     -6.4567      7.1511
C     15.3230     -8.7285      0.3811
H      4.6587      1.8077      1.5129
H      4.4667      1.2681     -0.6312
H     11.5052     -2.2251      6.4394
H      6.1187      1.0099      4.2744
C     12.3935     -4.0084      5.3335
C      8.8810     -5.5596      9.8821
H     18.0755      6.5674     15.6810
H     20.3200     10.6093     14.5848
C      8.7509     -1.1484      7.9907
H      9.5971      6.4455      2.0754
H     10.1962     -2.0846      4.6116
H      6.4583      1.8382      9.0858
C     12.3869     -5.6708      7.5473
C      0.4549      3.5372      5.0996
O      7.9015      5.6344      4.4499
C     11.2326     -5.0879      5.5542
C      6.4827      1.4660      7.1465
C      5.5668      2.2606      6.7671
C      3.6255      1.0137      6.0787
H      6.2971      7.5404      7.8815
H      5.0162      3.7368      8.5735
H      8.3507      9.2767      8.1875
H     12.1192     -4.2170      7.3883
C     14.7808     -7.9631      6.8644
C      3.8131      5.3730      5.0961
C      2.9710      2.9800      9.1660
H     20.6681      9.2269     16.0036
C      8.2900      7.2890     11.1961
H      4.0001      5.6403      8.4406
H     10.3752      6.5148     11.6046
H      7.1914      0.9896      6.6136
C      3.9619      3.0744      4.6911
C     17.6868      9.3672     18.3315
C      6.5872     -0.2741      8.8000
C      7.3469      9.1687      7.7833
C      5.5227      4.4055      8.1199
C      6.0268      1.0074      8.5884
H     -1.0504      4.1175      8.3763
H     10.1568     -3.9585      8.8793
H      9.9398     -0.2646      6.3179
H     19.3072      9.7981     13.0052
H      8.3576      6.0524     11.3965
H     -0.5380      3.9922      6.3124
C     14.4038     10.4930     13.9683
H      1.9934      4.5954      9.7358
H     10.4651     -3.4189      3.1162
266

C     19.7129      8.9742     13.9430
C      4.2241      1.8111      7.0742
C      2.9616      3.0928      1.1746
C      6.8182      4.8230      2.3583
H     -3.1763      3.7840      2.6505
C      7.5453      3.4874      2.5483
C      3.1943      4.0231      5.3661
C      6.7433      9.8283     10.5683
C     15.8747      7.3361     19.3581
C      6.3485      2.1649      4.3086
C      6.2280      8.3262     10.0110
C     13.7462      8.6395     13.7253
N     -0.3136      3.0647      6.2958
C     13.5274     -6.9452      0.5359
C      3.1053      4.0743      6.8781
C     15.7703      6.2252     17.2341
C     16.6343     10.6251     16.4809
H      1.2755      0.7756      9.7548
H     -2.4433      2.2457      5.8076
H      4.6970      6.1125      3.7389
H      5.8486     11.7066     11.1285
C     16.4724      9.2275     16.2053
H      7.2755     10.2738      9.8550
H      8.1995      3.5913      3.5366
H     12.5471      7.0591     10.7813
H     -1.6564      5.4403      6.7970
C      2.7484      2.8262      7.5400
H      9.5767     -2.2963      0.3219
H      7.3312      2.1482      4.7268
O     14.4155     10.8750     15.1589
C      8.0784     -0.0364      8.6636
C      6.8068      6.1081      9.7975
H     15.6022     -7.2530      9.0244
C      6.3425      2.4590      2.8058
H      6.3014      4.0084      7.4821
H      7.6038      9.9706     11.1117
H      4.4380     -2.6823      8.5224
H      4.4000      7.6509      9.2200
C     17.6812     11.0287     17.4852
C     10.0724     -4.4225      4.9347
O     14.8278     -4.3250      4.7283
C     11.0537     -5.3541      7.0548
C      8.5314      8.1669     12.3911
C     20.3146      7.9443     13.1728
C      6.3527      7.3311     -0.5338
H      5.1991      3.7166      1.3984
H     17.8565     10.2938     14.8196
H      2.0183     -0.8499      3.7981
H      8.1659     -7.0725      8.2118
C      6.8205      7.2194     10.8912
C      7.5839      5.6640      3.1673
H     21.6378      9.0547     14.5080
C     -1.2929      6.5384      5.0267
H     15.1501      8.7410     20.3815
H      4.2197      0.5543      3.0250
H      5.0736     11.1164      9.7289
C      9.8950     -0.9837      7.1850
C      5.7716      5.0847      9.3615
O      5.1161      3.2631     10.5037
C     15.7884      7.5559     17.9071
C      4.1740      6.2980      0.1756
C     17.4323      9.2405     14.9020
H      8.8856     -4.7121      5.1909
H      8.0411      7.7659      3.2557
H      3.8625      1.3922     10.4055
H      6.9032     -0.6637      9.8126
H     17.9199     12.5388     16.6324
C     -0.1762      3.2917      8.5339
C     13.4452      8.2873     12.3261
C      1.7929      1.9370      6.9506
C     12.4604     -6.5138      1.2598
H      5.5852      8.1037     -0.5679
H     -3.1931      3.6769      5.3458
H      6.8880      4.2226      4.7167
H      4.6206     10.3535     11.4894
C      9.7474      7.8952     13.0319
O     14.9702     11.0512     13.0572
C      6.3619      8.4778      8.5742
C     16.1871      8.6301     20.0958
C      3.4763      1.4715      9.3965
C      3.4611      1.6927      4.8240
H     11.2499     -2.3845      1.6145
H      6.3245     -0.6000      6.9971
H      6.9148      3.9306     11.7097
C      4.0713      3.1625      3.1178
H      8.6530     -2.6274      5.4479
C     10.6162     -4.1596      1.0761
C     10.8054      7.5868     11.9592
H     10.1665     -2.8837      7.2399
C      5.3931      2.8852      5.3987
H     18.4666     12.8457     18.2268
H      8.5380      0.9189      8.4333
C      2.6019     -0.7138      8.7314
C      4.8104     -1.7050      8.2128
C     -2.2254      5.0297      3.3716
C     16.7208      9.8628     19.3781
C      2.6476      3.5168      2.7300
C      4.7065      7.9113     10.2620
H      1.8384     -1.2412      9.1607
H     16.5928      8.8008     14.3216
H     -3.2276      5.0053      1.5442
H     15.7343     -8.8920     -0.8020
O      5.6409      6.9008      6.4503
C     13.3555     -4.9249      4.4842
H     17.0116     10.6973     20.1284
C     10.2727     -4.3972      3.4007
C     10.9073     -5.4991      3.0108
H      5.3061      8.8492      8.3558
C     10.0099     -5.5100      7.8157
H      1.1576      2.8509      4.7101
H     15.2073      7.3238     11.9930
H      6.6496      1.6180      2.1863
H      0.5975      3.8728      8.8818
C      3.6623      1.6464      1.3391
C     12.8830     -4.4309      2.1667
O      6.6461      4.7270     11.4011
C     -0.3529      4.0262      3.9955
C      7.5766     -1.8799      7.3540
H      3.0436     -0.5239      4.9616
H      9.2921     -4.9535      7.3730
H     15.9156     10.1232     18.6710
H     13.2669     -6.9219     -0.4270
O     12.6530     -3.5340      6.7050
C      6.1477     -1.1464      7.9108
C     13.5100     -6.0388      6.6994
C     15.2017      7.8848     14.0516
H     15.3164      8.7729     15.9552
C     13.4930     -5.3541      3.0434
H      8.5932     -0.0461      9.8517
C      2.8246      1.0379      3.7824
C      0.3259      2.4796      7.3332
C     10.4346     -2.1909      6.5540
C     -2.3673      3.0384      4.9593
C     17.9866     12.2709     17.5576
C      2.6687      3.7495     10.1046
C     11.6148     -5.0276      1.7917
C      4.0294     -0.6381      8.3618
N      2.2868     -0.0567      4.3536
H      3.2326      1.8365     -0.8648
C      3.4692      0.9929     -0.1399
O     17.0659      5.7057     15.5056
C      9.3035      6.6692      1.0243
H     18.8493      9.6056     18.7235
H      0.2767      1.4668      7.5620
C     -3.4044      4.7294      2.5961
C     10.1956     -5.1995      9.2032
H      1.6746      2.0089      5.9287
H      7.0457      4.9000      0.1739
H      7.7422      8.6276      6.8953
C     10.4489     -2.7765      0.9018
H      4.2252      8.8767     10.3084
H     15.0315     -5.4584      9.0467
H     -2.9019      5.4751      5.6979
H     11.9379     -2.9882      4.9400
H     14.6768      8.3844     10.5799
H      2.9332      0.2649     -0.1750
H      0.2324      2.6852      9.4828
C     14.9347      7.2316     15.1978
H      4.9718      5.8287      9.5482
C     14.7472      8.1911     11.4513
C      5.6417     10.7414     10.9147
H      2.6858      3.4203     11.2298
H     15.6994     10.9837     16.9408
C      4.0546      8.4103      4.3095
C      7.3497      7.0843      2.4897
C     20.6845      9.6227     14.8596
C     18.5081      8.3812     14.7153
C      4.2200      6.2008      6.3846
C      1.8759      4.9281      2.3515
C      5.5632      6.2015      0.2011
C      5.1433      7.2372      4.0395
C      7.7053      6.8484      1.1397
C      4.2282      5.0129      7.5313
C     14.5734     -7.6704      0.9702
H      8.0036      6.3777      4.9397
C      6.0806      7.5502      5.3813
C      6.6546      5.5139      0.9570
H     -1.0902      3.4009      3.1965
H     11.2278     -5.5770      9.6145
O      7.2692      7.8293      5.3773
H      8.4113      9.4257     12.4995
H      1.7717      2.9681      3.3965
H      3.7294      5.1862      0.4208
H      4.7143      4.8785      4.5868
C     12.2661      7.5963     11.8802
C     15.7080      6.1389     15.7533
H     14.1913     -6.7871      9.4954
C     -1.7428      4.3297      4.6754
C      0.2233      6.6456      5.2619
H      4.5410      7.0450     11.1486
H      3.4954      0.0651      6.4135
C      1.3490      5.7848      4.5983
H      2.7829     -0.3770      2.0132
H     16.6096     11.5563     15.8225
H     12.4971     -6.2315      8.4107
C      8.0174     -6.6782      9.1839
C      4.5400      0.9843      8.4200
O      6.1814      4.1892      5.2413
C      5.9187      7.5936      2.7715
C      9.7883     -2.8895      5.3220
C     12.6758     -6.6725      2.7908
C     -1.6328      6.2914      3.5780
H     17.1098      8.2122     20.7923
H     15.5766      8.9967     11.7539
H     -2.7372      2.5925      4.0479
C      2.4429      0.5283      9.4037
C      0.7294      5.1003      3.4000
C      5.2106      3.3957      2.4240
H     14.2561     -8.3315      7.7346
H      8.3054     -4.6614      9.1168
C      5.7644      4.2930     10.5410
H     10.5798     -0.5495      7.8793
H      7.5456     -2.3803      6.2699
C     14.8791     -6.4074      8.6661
C     -1.9272      5.4390      5.6503
C      3.3323      0.6408      2.4396
C      1.4663      4.5165      5.5954
C     14.7262     -6.4349      7.2017
C     15.4171     -8.7555      0.4189
H     11.7606     -7.2395      0.9714
H      4.8146      1.6103      1.3034
H      4.4873      0.4570     -0.5865
H     11.5137     -2.2227      6.3410
H      5.9524      1.1869      4.2577
C     12.4348     -3.9704      5.2457
C      8.8263     -5.4594      9.7630
H     17.5546      6.5600     15.2655
H     20.8364     10.7055     14.9804
C      8.5672     -1.0666      7.9322
H     10.2221      6.4747      1.5928
H      9.7250     -1.9586      4.7690
H      6.4797      2.1064      9.0840
C     12.4388     -5.6883      7.5106
C      0.4726      3.4999      5.0326
O      7.8609      5.6263      4.4399
C     11.2027     -5.0566      5.5476
C      6.4011      1.4312      7.1043
C      5.6511      2.3623      6.6695
C      3.6019      1.1560      5.8886
H      6.4600      7.4674      7.9102
H      5.0061      3.4264      8.5358
H      8.2579      9.4035      8.0602
H     11.8227     -3.5249      7.2027
C     14.9067     -7.9503      6.8732
C      3.9206      5.4081      5.1614
C      2.8436      2.9038      9.0846
H     20.8484      9.0854     15.9182
C      8.4739      7.2591     11.2745
H      3.8206      5.5559      8.2613
H     10.5854      6.6245     11.6993
H      7.0448      0.6465      6.6432
C      4.0655      3.0472      4.6892
C     17.6297      9.5375     18.1360
C      6.6808     -0.1632      8.7908
C      7.3092      9.1805      7.7175
C      5.5140      4.2149      8.1000
C      6.0222      1.1482      8.6600
H     -0.8583      3.8805      8.6190
H      9.8858     -4.1561      9.0529
H      9.7949     -0.4865      6.2797
H     19.4953      9.8424     13.2003
H      8.8358      6.2657     11.5409
H     -0.9033      4.0617      6.6525
C     14.3907     10.4401     13.8827
H      1.9842      4.3844      9.6259
H     10.6310     -3.3442      2.9518
