266

C     19.9082      8.6049     13.7186
N     -1.6372     10.5613      1.3686
C      3.7562      1.4299      7.0338
C      2.2228      2.3756      2.3426
H    -11.3801     13.8772     10.3731
C     -5.8519     17.7833      2.1690
H     -3.1753      7.3653      2.3564
C     -5.6747     16.5390      2.5868
C      3.3107      3.9432      5.5504
C     16.4788      7.4068     19.5561
C     -6.8194     14.6516      3.8057
C     -6.9118      7.8160      8.9234
C     13.6411      8.6152     13.7457
N      0.3622      2.6947      6.2576
C      0.8886      6.2096      0.7624
O     -1.6409      2.9558      1.6540
C      3.1059      3.9197      7.1507
H     13.3503      7.2318     11.2448
C     15.7934      6.3541     17.2779
C     16.7138     10.4304     15.9263
H     -1.4598      3.4250      6.8809
C     17.0276      9.1338     15.7994
H     -8.3918      7.1809     10.4576
H    -10.6378     16.6344     10.7758
H     -1.4671      5.8252      7.4222
H     -7.3762     14.5358      9.2603
C      2.9866      2.6683      7.7699
H     -6.1669     13.8538      3.5442
O     14.3275     10.4994     15.4195
C     -5.3172     12.0318      8.9541
C      6.1122      5.8656      9.6943
H      1.7792      0.1331      6.6445
H      3.7303      5.2059      8.3393
C     -6.7449     15.9368      2.9832
H      5.4756      2.9322      7.6795
H     -8.8747     12.2212      9.3813
H      1.4109      7.8345      9.0970
C     17.1978     10.8998     17.3400
C     -2.5936      8.9607      5.3155
O      2.2340      8.8618      4.6612
C     -1.5406      8.2536      7.1836
C      8.9002      7.9990     11.7671
C     20.3583      7.6785     12.7208
C     -6.7462     20.1136     -0.9979
H     -7.9861     16.5800      1.3449
H     17.2791      9.0924     13.5490
H      2.9027     -1.1774      4.5157
H     -4.9376      5.9031      8.8507
C      7.6101      2.8018      8.2680
H      0.5582      1.7925      0.9722
C      7.0321      6.4108     10.8324
C     -5.0683     18.5240      3.0773
H     -4.7914     20.2776      2.0416
C     -0.8221      6.8318      5.3083
H     17.0852      8.2029     21.3147
H     16.4886     11.6581     15.3119
H     -8.2363     19.3614      0.2493
H      2.6518      5.3950      0.6903
C     -3.3178     11.3331      7.4890
C      6.0664      4.6944      8.9790
C     16.3272      7.7598     17.8942
C     -7.6033     17.8329     -0.9486
C     17.5792      8.7218     14.6046
H     -3.2384      8.3456      5.8329
H     -4.7178     20.8507      3.7876
H     -9.1260     14.2093     10.6886
H     -7.4734      9.7274      8.9010
H     18.8746     12.3613     17.1908
C     -0.5335      3.8122      8.5426
H     21.6380      9.3892     14.5877
C     13.3829      8.7407     12.3674
C      1.6319      2.0694      8.1649
H     11.1907      6.9952     10.5655
C     -0.3449      6.0413      1.6055
H     -7.6820     20.6777     -1.3015
H     -1.5984      2.6145      5.6767
C     10.1064      7.2117     12.4564
O     15.5861      9.8837     13.9457
C     -5.8092      7.9002      8.0062
C     17.0386      8.5331     20.1687
C     -9.4998     14.2692      9.5755
C      2.1031      0.9950      4.8239
H     -0.9362     10.4575      2.1573
H     -6.7931     12.4423      6.3669
H      3.0152      7.4937      9.4486
C      3.9645      3.5408      3.3133
C     -2.2850      8.1588      0.6844
C     11.2866      6.9289     11.7308
H      8.6960      2.7579      8.4481
C     -7.6295     15.0345      5.0085
H    -11.1704     12.0172      9.6597
H     17.2108     12.4104     16.5307
C    -10.7601     12.5938      8.8311
C     -8.5602     10.9657      7.5994
C     -1.9662      5.1200      4.1187
C     16.8280      9.9922     19.4359
C      2.6519      3.5382      2.8567
C     -7.8583      6.9201      9.4842
H    -11.4676     12.6013      8.1060
H     15.6417      7.6348     13.7454
H      0.6361      3.7916      0.0979
O     -7.1412     19.3126      6.4219
C      0.9669      8.4308      4.5209
H     -8.1883     11.7562      6.8410
C     -2.4846      8.7347      3.8229
C     -2.3268      7.4471      2.9514
H     -4.0701     10.1059      8.4518
H     -4.7640     16.0753      2.5612
C     -2.5945      8.7151      7.7087
H      2.4039      4.0036      5.0625
H     -9.4591     17.5874     -1.0959
C      2.9760      1.2300      2.2553
C     -0.1866      8.4828      2.0482
O     -8.9646     17.5058     -0.3413
O      7.7387      3.9743     10.2716
C     -0.3096      3.2647      1.7346
C      0.4176      3.9073      4.1476
C     -5.8060     10.3651      7.3982
H     16.0568     10.0467     18.8768
H      0.0564     10.0225      4.0313
H     12.3045      8.4931     10.4714
O      0.4129      9.9406      6.3871
C     -7.2078     10.6681      8.4327
C      0.8044      7.3997      6.7289
C     14.5721      7.4410     13.8287
H     15.6458      7.9535     15.5449
C      0.6575      7.6421      3.0601
H     -4.9982     12.9372      8.1107
C      1.7017     -0.1231      3.8204
C      0.3761      2.8176      7.6318
C     -2.3462     10.9561      6.5461
C     -2.1405      3.3768      6.0334
C     17.7692     12.0698     17.5392
C     -9.5715     16.6752     10.2825
C      0.5583      2.0788      1.9620
C     -1.4405      7.3277      1.7366
C     -9.3075     12.1236      8.3167
N      1.7912     -1.3013      4.5486
O     17.1270      6.0965     15.2747
C     -3.4307     19.0342      0.0601
H     18.7116      9.4992     18.2057
C     -2.6417      4.4880      3.2189
C     -3.1582      8.5919      9.0395
H      7.5025      2.9554      7.0358
H      2.0866      2.0029      6.3212
H      8.4322      3.2279     10.5473
H     -4.4837      9.0180      6.6008
C     -2.2744      9.4901      0.5651
H     -8.3741      6.1953      8.9826
H      2.1157      6.5408      9.6348
H     -0.3929      9.4987      2.4012
H     14.3583      9.7225     10.5216
H     -2.5128      3.5169      1.8405
H     -0.7963      3.7757      9.6542
C     14.8250      7.2815     15.2969
C     14.1236      9.5226     11.6304
H      7.4390      5.5353     11.7880
H      1.0784     -2.0673      4.4462
C     -8.5925     21.2296      4.0562
C     -5.1156     20.0555      3.0635
C     20.7376      9.7779     14.0533
C     18.8535      8.3246     14.5906
C      4.2590      5.9339      6.5710
C      2.0609      4.8735      2.6566
C     -7.2838     18.9120     -0.0316
C     -7.3041     20.5054      4.1041
C     -4.9563     19.1021      0.4142
H     14.6289     10.2574     12.1582
C      4.2413      4.7091      7.5609
C      1.7970      5.0873      1.1135
H     -2.5921      9.6586      7.0557
C     -6.4961     20.0398      5.4028
H      1.2529      1.7956      4.5412
H     -2.6495      5.0048      2.1206
C     -6.1118     18.3652      0.8319
H     -0.2411      3.0904      3.7435
O     -5.2363     20.1546      5.5561
H      9.0916      9.0922     12.0256
H     21.0775      9.8581     12.9493
H      1.1974      3.1748      4.1492
H      2.0131      4.5775     -0.7167
H      4.9709      5.2283      4.8558
C     12.6524      7.8963     11.4345
H      5.7855      4.5735      6.8922
C     15.7542      6.2149     15.8234
C     -1.7727      4.7673      5.4994
C      0.7134      6.9883      5.3476
H     -6.7979      8.8223      9.5579
H      2.6843      1.7047      4.3637
C      1.4521      5.8898      4.8684
H      1.9218     -0.3045      1.2615
H     14.9673      9.8760     16.0247
H     -2.5032      8.6193      9.9478
C     -4.7967      6.8560      8.1017
C     -8.8805     13.5366      8.3427
C     -6.5593     20.6536      2.9628
C     -2.7809     10.3616      5.3240
C     -0.2319      6.1806      3.1115
C     -1.3784      6.3758      3.9082
H     -3.0882     11.4398      8.5140
H      2.0375      3.1153      0.6574
H     -6.7072     17.3181     -0.9500
H     -3.2146      2.9874      6.2945
C    -10.9386     14.0859      9.2474
H     -1.3715     11.6058      7.0387
C      0.9203      5.2423      3.6197
C     -7.9642     16.5043      2.3679
H      1.5469      4.7726      8.3203
H     18.1402      8.2054     20.1656
C      7.0925      3.8309      9.1288
H     -0.8665     10.8891      0.7974
H     -6.2447     10.5034      6.4959
C      2.2294      7.1301      8.6460
C     -1.3730      5.7906      6.2292
C      2.1636     -0.0003      2.4521
C      1.3019      4.8275      6.1324
C      2.0688      7.2697      7.2643
C      1.6934      3.8807      0.0900
H     -0.8014      5.1159      1.3131
H      3.9777      1.4124      2.7535
H     -3.3119      9.5253      9.6658
H     -3.8252      6.8006      7.3710
H      7.4232      1.7493      8.1426
H     -2.5822     10.9254      4.4346
H     -7.7415     14.1210      3.1965
C     -0.0259      9.4009      5.1499
C     -4.2153      7.6015      9.2353
H     -8.0820     17.9344     -2.0196
H     -3.1806      9.2289      3.2515
C     -4.6417     10.9275      8.1639
H     -2.8713      3.1304      3.2720
H     -3.9155     10.5869      5.7033
C     -0.1432      7.7440      7.7093
C      0.3717      3.7913      5.4918
O     -4.5413     18.0976      4.0823
C     -1.1875      8.3775      5.6778
C     -7.1063     13.4247      6.7944
C     -8.1029     14.2473      6.1204
C      2.4182      0.9308      6.2216
H     -6.2849     13.9742      6.6648
H     -8.0446     16.0811      9.4231
H     -5.1066     12.3488      9.9869
H      0.2189     10.8675      6.2467
H      0.4669      8.7209      8.3938
C      1.8375      4.6708      7.3850
H      0.0116      4.3000      2.2271
C      3.9729      5.2167      5.2179
C     -9.1247     15.8097      8.9974
H     20.5341     10.6741     14.5804
H      0.5671      6.1342     -0.2162
C      8.2887      7.4790     10.4619
H     -8.8843     16.3019     11.1316
H     11.5107      5.8521     11.7178
C      4.1299      3.0012      4.7744
C     17.5466      9.6602     18.0643
C     -6.9684     12.0037      9.1424
C     -5.4911      8.9912      7.4166
C      5.5829      4.0546      7.6611
C     -7.3986     13.4467      8.4625
H     -0.7509      4.7601      8.0614
H     -2.6334     10.1865     -0.1473
H     -7.3743     11.7946     10.1631
H     -2.7768     18.4556      0.5553
C     14.5467      9.7486     14.3821
H     -9.1896     17.6181      9.8244
H     -1.4977      9.3167      3.7201
266

C     19.8177      8.5143     13.7742
N     -1.6672     10.5521      1.4437
C      3.6615      1.3361      7.1275
C      2.0486      2.4300      2.4047
H    -11.4367     13.9147     10.2262
C     -5.8696     17.8987      2.1638
H     -3.3276      7.3032      2.8174
C     -5.7123     16.5029      2.5366
C      3.2838      3.8826      5.5987
C     16.4648      7.4394     19.4072
C     -6.7724     14.7077      3.8688
C     -6.8327      7.8245      8.9535
C     13.6343      8.6328     13.7996
N      0.2542      2.7504      6.3280
C      0.9345      6.1666      0.7088
O     -1.6116      2.9779      1.6920
C      3.0814      3.9606      7.0394
H     13.2174      6.9040     10.9730
C     15.9370      6.2563     17.3665
C     16.6011     10.5685     16.0055
H     -1.8767      3.1784      6.9677
C     16.9982      9.1373     15.8866
H     -7.8607      7.2878     10.6002
H    -10.8710     16.8193     10.2512
H     -1.1437      5.8726      7.2418
H     -6.5859     13.8876      9.0438
C      2.9944      2.7725      7.8519
H     -6.0698     13.9549      3.5764
O     14.2534     10.4357     15.4396
C     -5.3427     12.0677      8.9796
C      6.1900      5.8749      9.7479
H      2.1476     -0.1433      6.6177
H      4.0212      5.2534      8.7023
C     -6.7899     15.8987      2.8922
H      5.3547      2.9321      7.5283
H     -9.1190     11.6609      9.5568
H      1.7086      8.0271      9.3940
C     17.1948     10.6895     17.2234
C     -2.5585      8.9454      5.1932
O      2.3630      8.9703      4.5344
C     -1.5070      8.1457      7.2056
C      8.8399      8.0047     11.8736
C     20.2570      7.5446     12.8208
C     -6.7267     20.0297     -1.1723
H     -8.2759     16.6470      1.3808
H     17.7693      9.4167     13.8159
H      2.7272     -1.3343      4.9044
H     -5.1209      5.8399      8.5767
C      7.6754      2.6514      8.3581
H      0.3162      1.4836      1.1323
C      7.0732      6.4104     10.7336
C     -5.1850     18.7280      3.0403
H     -5.0079     20.2267      1.8837
C     -0.7668      6.8374      5.2858
H     16.7518      8.7993     21.2701
H     16.2906     11.6330     15.6131
H     -7.5511     19.5352      0.7849
H      2.7474      5.7327      0.7671
C     -3.2887     11.4412      7.5680
C      6.1736      4.8160      8.7707
C     16.2339      7.5994     17.9545
C     -7.7972     17.9359     -0.8712
C     17.4717      8.8002     14.5789
H     -3.6546      8.3768      5.6763
H     -4.4158     20.6671      3.5912
H     -8.9805     14.0629     10.3636
H     -7.2900      9.7588      8.9418
H     18.8728     12.1674     17.0169
C     -0.5424      3.6349      8.3878
H     21.2330      9.5858     15.0174
C     13.3510      8.7760     12.2171
C      1.6228      2.1898      8.1860
H     10.9091      6.9198     10.6912
C     -0.3155      6.1258      1.5285
H     -7.4753     20.6539     -1.3305
H     -1.6469      2.5329      5.4000
C     10.1114      7.3733     12.5246
O     15.6405      9.8627     13.8463
C     -5.9669      7.7923      7.9575
C     17.0881      8.5811     20.2421
C     -9.4358     14.4447      9.5106
C      2.0915      0.9403      4.7541
H     -0.8026     10.5279      1.9574
H     -6.6712     12.6260      6.6671
H      3.3255      7.5050      8.8859
C      4.0062      3.2981      3.3259
C     -2.3179      8.1646      0.6389
C     11.3144      7.0678     11.7129
H      8.7024      3.0837      8.5801
C     -7.6982     15.0754      4.9645
H    -11.3359     11.9837      9.8007
H     17.4680     12.3701     16.3641
C    -10.8860     12.5155      8.7159
C     -8.5186     10.8959      7.6361
C     -1.8787      5.0638      4.0857
C     16.7906      9.9240     19.3879
C      2.5946      3.6361      3.0106
C     -7.8720      6.8865      9.4707
H    -11.6199     12.3737      7.8976
H     15.3373      7.3384     13.1236
H      0.4714      3.6415     -0.2951
O     -7.0845     19.2155      6.4266
C      1.1409      8.3264      4.5397
H     -8.0870     11.7916      7.2210
C     -2.4018      8.8084      3.7941
C     -2.3060      7.2574      2.9757
H     -4.3379     10.3895      9.1717
H     -4.6461     16.2255      2.9601
C     -2.6305      8.7863      7.7197
H      2.2570      3.8290      4.8641
H     -9.4045     17.6904     -1.0821
C      3.0186      1.2934      2.1660
C     -0.0401      8.3876      2.0740
O     -9.0521     17.5017     -0.2581
O      7.7234      3.9309     10.1926
C     -0.3193      3.1538      1.6466
C      0.3277      3.8269      4.1182
C     -5.8892     10.3937      7.3940
H     15.6752     10.1421     19.4253
H     -0.5078     10.2918      4.5123
H     12.6746      8.2580     10.4843
O      0.5423     10.0851      6.3662
C     -7.2752     10.7231      8.2806
C      0.9177      7.4079      6.8455
C     14.5405      7.4535     13.8954
H     15.3575      8.4000     15.2982
C      0.6722      7.5558      3.0910
H     -4.7371     12.9934      8.6514
C      1.8941     -0.1414      3.7429
C      0.3044      2.8261      7.7589
C     -2.5114     10.9898      6.6202
C     -2.2266      3.2850      6.0030
C     17.8152     12.0553     17.5167
C     -9.7353     16.8475     10.2460
C      0.5428      2.3819      2.0896
C     -1.3425      7.4314      1.5910
C     -9.3594     12.0671      8.5151
N      1.7536     -1.1918      4.4917
O     17.0768      6.0700     15.2436
C     -3.6899     19.0274      0.2628
H     18.3492      9.3471     18.7312
C     -2.5568      4.4896      3.1208
C     -3.1768      8.5865      9.1832
H      7.3528      3.0314      7.3564
H      1.4226      1.4342      6.5952
H      8.0443      3.3395     10.8760
H     -4.8209      9.0384      6.5705
C     -2.1877      9.4334      0.5449
H     -8.4114      6.8128      8.2083
H      1.6570      6.1851      8.8047
H     -0.0259      9.1679      2.9968
H     14.7572      9.2157     10.5716
H     -2.0992      3.8337      1.8110
H     -1.0906      3.3600      9.4974
C     14.9781      7.3790     15.2822
C     14.2461      9.6507     11.5997
H      7.4294      5.5530     11.2887
H      1.1045     -1.8328      4.0842
C     -8.4902     21.1144      4.1477
C     -5.1949     20.1476      2.9423
C     20.7009      9.7252     13.8539
C     18.7488      8.1712     14.5480
C      4.2062      5.9424      6.5151
C      2.1050      5.0018      2.6462
C     -7.1556     18.9138      0.1108
C     -7.2230     20.4547      4.0134
C     -4.9906     19.1194      0.4314
H     15.1665     10.1009     12.1123
C      4.2425      4.8579      7.6044
C      1.9648      4.9973      0.9638
H     -2.7968      9.7914      6.9754
C     -6.4435     20.0178      5.4209
H      1.1733      1.6868      4.9232
H     -3.0637      4.4807      2.0708
C     -6.0903     18.4400      0.9803
H     -0.4593      3.1014      3.9250
O     -5.2112     20.1782      5.4668
H      9.0467      9.0256     11.7864
H     21.4785      9.9948     13.1136
H      1.4460      3.3933      4.0592
H      1.9855      4.2030     -0.7734
H      4.8787      5.4027      4.6105
C     12.4896      7.8514     11.4316
H      6.2200      4.4085      6.8518
C     15.8118      6.1417     15.8185
C     -1.7840      4.7519      5.3791
C      0.6705      6.9118      5.2554
H     -6.8240      8.7607      9.4646
H      3.0708      1.6528      4.4583
C      1.6072      5.6400      4.7647
H      1.3956     -0.5117      1.9893
H     14.6303      9.8648     16.1841
H     -2.2852      8.3612      9.8742
C     -4.7777      6.8175      8.1101
C     -8.8309     13.5795      8.4146
C     -6.5481     20.5814      2.8741
C     -2.9632     10.4238      5.4510
C     -0.1460      6.0541      3.0466
C     -1.4414      6.4446      3.9629
H     -2.7674     11.7581      8.4541
H      2.4258      3.0375      0.3349
H     -6.8043     17.1042     -1.2056
H     -3.2637      2.5958      6.2830
C    -10.8551     14.0122      9.2226
H     -1.5785     11.5938      6.6474
C      0.8573      5.0795      3.6148
C     -8.0053     16.5971      2.4473
H      1.3863      4.5913      8.6612
H     18.1861      8.5587     20.1813
C      7.0403      3.7828      9.1458
H     -1.3313     11.1113      0.6587
H     -6.0540     10.3014      6.1649
C      2.1198      7.2178      8.7568
C     -1.2702      5.7973      6.1715
C      2.1559      0.0901      2.4806
C      1.2809      4.7765      6.1307
C      2.1894      7.2377      7.2381
C      1.5885      3.9447      0.0508
H     -1.0891      5.2613      1.1736
H      4.0697      1.1093      2.5533
H     -3.9109      9.5772      9.5528
H     -4.0373      6.7829      7.4142
H      7.5188      1.6642      8.2453
H     -2.9068     10.6259      4.1747
H     -7.5729     14.2443      2.9941
C      0.0618      9.2776      5.1803
C     -4.1595      7.6731      9.2335
H     -7.6881     18.4276     -1.8782
H     -3.4713      8.9731      3.3786
C     -4.5722     10.9238      8.1696
H     -3.2181      3.7206      3.7221
H     -3.9570     10.0786      5.5755
C     -0.1504      7.8664      7.6779
C      0.4748      3.8495      5.7151
O     -4.5983     18.1211      4.0045
C     -1.2114      8.4996      5.7076
C     -7.0820     13.5474      6.8971
C     -8.1386     14.1258      6.1513
C      2.4359      0.9372      6.2129
H     -6.1466     14.2140      6.3324
H     -7.9711     15.3917      9.2010
H     -4.7713     11.9358      9.8482
H      0.7575     11.0365      6.4473
H     -0.0009      8.9058      8.0855
C      1.9554      4.7496      7.4558
H     -0.2078      4.3250      1.8933
C      3.9696      5.3868      5.1350
C     -9.1996     15.8305      9.1331
H     20.4639     10.6577     14.2570
H      0.6316      6.1649     -0.2360
C      8.3236      7.2820     10.5475
H     -9.5582     15.9366     10.9957
H     11.4735      5.9418     12.0087
C      4.0622      2.8807      4.8386
C     17.5673      9.7391     18.2015
C     -7.0157     12.1047      9.2137
C     -5.4265      8.9416      7.5347
C      5.5428      4.0227      7.6500
C     -7.3561     13.3981      8.3743
H     -0.8512      4.5378      7.7569
H     -2.2821      9.9311     -0.3960
H     -7.2569     12.0413     10.3541
H     -2.6879     18.4194      0.3513
C     14.5255      9.7963     14.3197
H     -9.3240     18.0149     10.1016
H     -1.5441      9.4413      3.4366
