265

C     19.7571      9.2308      0.9924
C     16.8264      1.5584      7.1779
C     16.2598      3.0887      1.2350
C      7.1149     17.6421     15.3081
H     10.1773      3.5937      2.5452
C      7.4256     16.3955     15.8552
C     16.1975      3.8981      5.4801
C      6.7775      9.7189     10.7818
C     16.0338      7.2193      6.3209
C      6.3277     14.9372     17.2454
C      6.3290      8.4269     10.0602
C     13.6974      8.7806     13.6656
N     12.7545      3.3368      6.4551
C     13.9091      5.8285     13.2776
C     16.1628      4.0510      6.9674
C     15.6486      6.3906      4.3730
C     16.8582     10.8075      3.4425
H      1.6104     13.6886     23.2405
H     10.5248      2.3421      4.5360
H     17.8681      6.2818      3.2469
H      5.8375     11.6622     11.8896
C     16.4104      9.4430      3.1384
H      7.7290     10.0828     10.7254
H      8.0575     16.5225     16.8836
H     12.5859      6.6624     11.2000
H     11.1415      5.2815      7.0735
C     15.7330      2.6468      7.3855
H      9.9549     10.4049     12.9591
H      7.4497     14.6267     17.5265
O     14.0679     10.8610     15.1984
C      8.2207     12.8275     21.7862
C      7.1040      6.0978      9.7570
H     14.6379      5.2109      8.9908
C      6.3432     15.4408     15.8051
H      6.5199     17.5761     20.3550
H      6.8626      9.4215     11.8406
H      4.3165     10.9776     22.1009
H      4.6302      7.5643      8.8318
C     17.5230     11.0364      4.6103
C      9.8944      8.4520     17.7832
O     14.6981      8.5682      4.9067
C     11.3107      7.7933      7.0903
C      8.4675      8.4281     12.2677
C     20.1198      7.9394      0.1777
C      6.3146      7.3057     12.1562
H      5.4499     16.9428     15.0934
H     15.7949     -0.4208      4.6420
H      8.4818      5.8188      8.1336
C      6.9470      7.2337     10.7011
C      7.3902     18.7321     16.0983
H     21.9019      9.2555      1.1678
C     11.7168      6.5997      4.9608
H     14.9474      8.7933      7.1453
H     17.7992      0.6721      2.7559
H      5.9986     11.1302      9.8063
H      3.6401      6.9612     13.1534
C      9.6518     12.1935     19.8042
C      6.0275     18.0420     22.4596
O      5.1431     15.8198     23.1128
C     15.9243      7.6577      5.0078
C      4.2274      6.1450     13.0965
C     17.2420      9.2106      1.8666
H      8.8035      8.3548     17.6490
H      7.9977     20.8437     16.1917
H      3.9338     14.7020     23.4384
H      6.5741     12.2890     22.9127
H     18.5698     12.6838      4.3624
C     12.9438      3.0523      8.7981
C     13.2425      8.1871     12.4584
C     14.4465      1.9807      7.1527
C     12.5934      6.4160     14.2329
H      5.6072      8.1217     12.1714
H     10.4042      3.0716      6.2380
H      6.1077     17.0226     17.2031
H      5.0765     10.2503     10.9142
C     10.0016      7.6710     12.8348
O     15.0152     10.6579     13.0141
C      6.7208      8.9203      8.5284
C     16.0996      8.4561      7.1262
C      3.3623     14.4184     22.4717
C     16.4971      1.4966      4.8335
H     11.2064     10.4896     14.5762
H      5.9854     12.8997     20.2337
H      6.8021     16.4771     24.7647
C      4.0854     16.4605     16.2473
H      8.7358     10.1649     18.5177
C     10.8838      8.5005     13.5242
C     10.9231      6.9439     11.9954
C      5.4699     15.6949     18.3096
H     18.5409     12.1574      6.1346
H      8.6586     13.7890     21.7316
C      2.6711     12.2730     21.6472
C      4.7777     11.3608     20.9655
C     10.8536      4.9261      3.5314
C     16.4398      9.8002      6.4388
C     15.7554      3.6514      2.3820
C      4.8765      8.2646      9.7636
H      2.2357     11.0676     21.7953
H     16.6974      8.2634      1.2712
H      9.4934      4.7385      1.7372
H     15.6608      3.7563     12.0281
O      5.4757     19.8881     19.3377
C     13.3994      8.0176      4.6994
H     16.8089     10.4831      7.2480
C     10.3754      8.3579     16.2419
C     10.9979      7.4249     15.5797
H      5.8022      9.1200      7.9109
C     10.1896      7.5149      7.9375
H     13.4640      2.2643      4.8067
H     15.1784      7.5788     11.4160
H      6.6286     14.4550     15.4912
H     13.9699      3.3030      9.3391
C     16.9146      1.7796      1.3745
C     12.9335      8.5602     15.0163
O      6.6697     17.4885     24.3619
C     12.5776      3.8143      4.2384
C      7.4856     11.2034     20.4055
H     14.2314      0.1932      4.5012
H      9.2153      7.4024      7.6172
H     15.6825     10.2152      5.7869
H     14.1586      5.8862     11.9938
O     12.7925      9.7527     19.4073
C      6.2391     12.0065     20.8311
C     13.6700      6.7920      6.6356
C     15.4743      7.9142      1.2740
H     15.3009      9.6232      3.1312
C     13.4516      7.5696      3.0302
H      8.4901     12.2324     22.5880
C     15.7687      1.2682      3.6675
C     13.1928      2.7347      7.4431
C     10.5248     11.1830     18.9911
C     10.1567      3.3352      5.2078
C     17.8031     12.2651      5.2900
C      2.9309     16.5872     22.9097
C     11.6941      7.6206     14.3543
C      3.9662     12.4387     21.2519
N     15.0017      0.1433      3.8484
H     16.4986      2.1921     -0.8959
C     16.6051      1.2426     -0.0876
O     16.9763      6.4247      2.5526
C      9.1648     19.6490     14.1212
H     18.6645      9.6060      5.5895
H     14.4039      1.2069      7.9224
C      9.7564      4.5350      2.8153
C     10.3847      7.4785      9.1674
H     14.4705      1.2746      6.0446
H      8.0195     17.6901     13.2261
H      7.9180      9.3029      6.8210
C     10.8176      9.8975     13.7221
H      4.6583      9.1494      9.2940
H     15.6064      7.1171      9.2437
H     10.0784      5.9774      5.9565
H     12.0882      9.8652     17.5077
H     13.9408      8.3433     10.7299
H     15.5373      1.0537     -0.3870
H     12.4024      2.0646      9.3473
C     14.8893      7.3883      2.4215
H      5.1388     18.4440     23.0290
C     14.4108      8.1976     11.6797
C      5.9699     10.9815     10.9471
H      3.2870     16.1523     23.8844
H     15.9925     11.7427      3.0181
C      4.1022     21.6185     17.3411
C      7.4166     20.1985     15.4790
C     20.9497      9.6610      1.5628
C     18.5611      8.7457      2.0499
C      4.2839     19.1620     19.3020
C     14.9679      4.8701      2.4054
C      5.8230      6.1906     12.9052
C      5.2722     20.6003     17.1791
C      7.5915     19.7705     13.9981
C      4.2310     18.1164     20.3346
C     14.7049      4.9203     13.9656
H      6.7803     19.0856     17.9142
C      6.0477     20.3824     18.2789
H      9.1127     18.7633     14.5481
C      7.0931     18.3229     13.7093
H     11.9947      3.2324      3.4785
H     11.2501      7.2036      9.4624
O      7.3297     20.6937     18.5344
H      8.2615      9.5048     12.2116
H     14.9123      1.8633      3.6767
H     12.2973      9.2980     15.4245
H      3.6299      5.4955     13.8969
H      4.6498     18.3798     17.2247
C     12.3283      7.2353     12.0347
C     15.7734      6.3815      2.9484
H     14.0962      6.8260      8.9580
C     11.2030      4.3501      4.7716
C     13.2678      6.6617      5.2464
H      4.1007      7.9977     10.7753
H     15.5893      0.0361      6.0635
C     14.2611      5.6561      4.6450
H     16.0956      0.2718      1.8734
H     12.5318      6.8742      8.4279
C      8.1572      6.3200      9.1199
C      4.3735     13.7868     21.2379
O      6.0869     17.0314     18.1934
C      6.1270     20.8330     15.8031
C      9.8479     10.0496     18.1112
C     12.8474      6.0342     15.6775
C     11.4747      6.1791      3.4886
H     16.7010      8.3272      7.9454
H     14.3934      9.2445     11.8610
H      9.4844      4.2474      5.3767
C      2.3725     13.3151     22.3845
C     13.7082      4.9177      3.4148
C      5.0950     16.0398     15.5366
H     14.3702      4.4175      7.7879
H      8.6582      8.2583      8.8488
C      5.8936     16.9146     23.5059
H     10.3711     12.9411     20.4279
H     14.2261     10.2228     15.8791
H      7.3181     10.8676     19.3066
C     14.8669      6.2825      8.6941
C     11.0935      5.4727      5.8027
C     16.6696      0.8111      2.5026
C     14.7294      4.2851      5.3808
C     14.8050      6.2936      7.1298
C     15.2908      3.7662     13.2874
H     12.2230      5.5516     13.6838
H     17.8334      1.7950      0.8039
H     17.0183      0.2605     -0.3889
H     11.4623     11.5899     18.4334
H      5.7649     14.1005     16.9065
C     12.2724      9.0272     18.1699
C      8.8454      7.4294      9.5753
H     21.1190     10.6144      1.2358
C      8.5319     12.0872     20.5338
H      8.9433     20.3045     14.6995
H      9.7615     10.7395     17.1709
H      6.0397     15.0822     22.2572
C     12.3358      7.0851      7.4697
C     13.5514      3.2520      5.2708
O      7.5586     18.5344     17.5474
C     11.2018      7.9364     18.4813
C      6.3127     14.4414     20.1916
C      5.3269     15.1577     19.6139
C     16.6374      0.6470      5.9004
H      6.7687      7.8325      7.9264
H      5.3080     16.4200     20.8864
H      8.8077     10.0555      8.9154
H     13.0838      8.9341     20.0703
C     14.7770      4.7637      6.8266
C      3.8726     18.2680     18.0135
C      2.9357     15.6740     21.8763
H     20.8560      9.4972      2.5700
C      8.4143      7.5839     10.9467
H      4.0056     18.7355     21.2607
H     10.3984      5.8467     11.7872
H      7.2112     14.7560     20.0471
C      4.0622     15.7537     17.6648
C     17.6042      9.8079      5.3532
C      6.6856     12.8429     21.9888
C      7.9212      9.4701      8.0428
C      5.4707     17.5251     21.0226
C      5.9248     14.1331     21.6891
H     12.2829      3.7624      8.6436
H      9.3758     13.2690     19.2025
H     19.4485     10.0932      0.7421
H      8.8863      6.5286     11.3166
H     11.8650      3.1930      6.1249
C     14.3292     10.1073     13.8114
H      3.4188     17.5314     22.3547
H     10.1433      9.2717     15.5725
