263

C     20.0004      8.9080     13.9586
N     -1.3750     10.3791      1.4759
C      3.9193      1.5506      7.0210
C      2.0776      2.7614      1.2680
C      7.0990      4.9676      2.5259
H     -3.4957      3.7442      2.7045
C      7.1985      3.7199      2.8830
C      3.3642      4.1423      5.5472
C     -6.2277      9.8105     11.0222
C     16.3339      7.0784     19.5192
C      5.6548      1.6473      3.6846
C     -6.8773      8.8848     10.2025
C     13.6339      8.2158     13.7282
N      0.0396      2.6041      6.0907
C      0.4841      6.0338      0.6781
O     -1.4556      2.6203      1.4555
C      3.0963      4.0666      7.0014
C     15.6144      6.1763     17.3891
C     16.4679     10.4018     16.9894
H    -11.8034     13.6536      9.3818
H     -2.9249      3.1641      3.9409
H     16.8725      6.5581     14.5094
H     -6.5659     11.4535     12.4231
C     17.0999      9.2155     16.4248
H     -8.4938      8.1176     11.2707
H     -5.7362     10.2676     10.2057
H      7.6505      3.6741      3.8706
H     13.2374      6.6731     10.7559
H     -0.7357      5.2091      6.7664
C      2.9377      2.6293      7.7953
H      6.2627      0.7975      4.1187
C     -4.7015     13.1288      8.5641
C      6.8503      5.7627      9.9738
H      2.3444      0.2520      5.9884
H      1.7136      7.9178      9.3617
C      6.2255      2.6481      2.5869
H      6.4047      4.7158      7.6937
H     -5.3475      9.6869     11.6847
H     -7.8501     11.3745      9.6082
H     -8.3026      7.6001      9.4778
C     17.4288     10.9821     18.0238
C     -3.1084      8.2027      5.1678
O      1.9222      8.6459      4.5375
C     -1.3179      7.5417      7.6012
C      8.7690      8.1052     12.0804
C     20.4940      7.9378     13.0100
C      6.4838      7.0902     -0.6694
H      4.8482      3.4625      1.1352
H      1.8547     -1.4412      4.0297
H     -4.9964      5.8619      7.9677
C      7.2303      6.4784     11.2921
C      7.5439      5.7599      3.6844
H      8.2258      7.2315      2.2205
C     -1.0024      6.7388      5.2184
H     15.7920      8.4197     20.9026
H      2.8534     -0.5132      1.8870
H     -7.5326     11.5352     10.9427
H     15.2121      7.2715     12.9706
C     -3.1454     11.6087      7.2412
C      5.5959      5.4965      9.4773
C     15.8996      7.4953     18.1011
C      4.8230      5.8760      0.3536
C     17.7909      9.5599     15.2536
H     -3.3781      7.2255      5.1456
H      8.7226      7.3219      3.8360
H     -9.1206     13.2482      9.9956
H     -6.3562     12.6719      9.8229
H     17.9622     12.4916     16.6774
C     -0.1528      3.2282      8.2958
C     13.2457      8.3256     12.2342
C      1.6177      1.5996      7.8298
H     -2.5851      7.8677     10.2851
C     -0.6478      6.2613      1.4226
H      5.3570      7.2864     -0.6403
H     -2.2493      1.9012      4.5279
H     -7.9884     10.2027     12.2428
C     10.2029      7.5539     12.5053
C     -6.3930      8.6831      8.7734
C     16.6567      8.2279     20.3678
C     -9.4646     14.0274      9.3127
C      2.6790      1.7439      4.5511
H     -1.8116     11.1596      1.9015
H     -2.6564      9.9671     -0.0866
H     -6.9504     12.4873      6.5819
H     -9.3681     17.0973     11.1894
C      3.9889      3.5523      3.0710
H     -5.0930      9.1772      6.2831
C     -2.1368      8.2065      0.6581
C     11.1284      7.0472     11.3160
C      4.9165      2.3167      4.7332
H      4.0581      0.0300      5.7216
H     -4.3545     14.1567      8.5655
C    -10.1999     12.0279      8.2917
C     -7.9431     11.3540      8.6914
C     -2.5017      5.1713      3.8185
C     16.8475      9.5643     19.5730
C      2.0362      3.4241      2.4727
C     -7.9915      8.1123     10.3428
H     15.7134      8.6714     14.0581
H     -2.7731      5.3833      2.0965
H      1.3811      4.7472     -0.5926
O      5.7001      6.5286      6.7214
C      0.6367      8.0962      4.5215
H     -7.6181     10.2858      8.6113
C     -2.9478      8.4221      3.7358
C     -1.9515      7.6576      3.1151
H     -6.7466      8.6421      7.8413
C     -2.6383      7.7333      7.7723
H      2.3065      3.8179      5.5672
H     14.1395      8.7180     10.6698
H      6.7519      1.9398      1.8048
H      0.0549      3.4796      9.2632
C      3.0895      1.7461      1.0775
C     -0.1054      8.2974      2.0647
C     -0.4744      3.2036      1.4634
C     -0.0291      3.8229      4.0523
C     -5.4049     10.9652      7.6381
H     -3.4081      7.3225      7.1432
H     15.6468      9.8252     19.6031
H      0.0137      6.1809     -0.3214
O     -0.0135      9.9189      6.0247
C     -6.6477     11.8431      7.7696
C      0.9842      7.4191      6.7885
C     15.0666      7.7024     14.0250
H     15.5518      8.3048     15.7728
C      0.7624      7.3445      2.9166
H     -4.2480     12.7550      9.6720
C      2.7155      0.5696      3.5800
C      0.3140      2.0901      7.4522
C     -2.9183     10.2384      6.6158
C     -2.5983      3.0491      4.8501
C     18.1722     12.0117     17.8090
C     -9.7591     16.7745     10.0663
C      0.7075      2.6059      0.7657
C     -1.2449      7.6583      1.7223
C     -8.9095     12.2156      8.0879
N      2.0849     -0.4735      4.1756
H      3.8206      2.1354     -0.7924
C      2.7404      1.6491     -0.4061
O     16.9081      5.9153     15.3062
C      9.5014      6.4454      0.7644
H     18.6964      9.4431     19.2248
H     -0.6078      1.1489      7.6645
C     -3.1087      4.6964      2.7187
C     -3.0260      7.5650      9.3412
H      1.7666      1.2346      6.8194
H      7.4693      4.4168      0.3777
H     -4.5276      8.9293      7.8441
C     -1.9964      9.6195      0.5239
H      4.9925      5.3519     10.3455
H      2.0361      6.3004      9.6511
H     -0.7450      9.4042      4.0863
H     14.8677      9.8373     11.7790
H      2.0432      2.1650     -1.2457
H     -1.0971      2.9754      8.6084
C     15.0894      7.2758     15.4068
H     -0.4428     11.1706      1.2425
C     14.3425      8.9907     11.7254
C     -7.1763     10.7619     11.7420
H     15.4221     10.4077     17.4137
C      4.3530      8.0885      4.4225
C      7.7606      7.0945      3.5508
C     21.3704      9.3569     14.6765
C     18.9556      8.5769     15.0797
C      4.2321      6.0122      6.3144
C      1.6989      4.8566      2.5894
C      6.0310      6.2943      0.4516
C      5.7052      7.7501      4.4162
C      8.1405      6.7325      0.9827
C      4.2609      5.0762      7.3542
C      1.5751      5.2676      1.1531
H     -2.4576      5.6972      6.5177
C      6.3726      6.8952      5.7058
H      9.8912      5.4414      0.3305
H      0.3342      2.2814     -0.2248
C      7.1648      5.5409      1.0683
H     -0.6588      2.9783      3.4205
O      7.7027      7.0810      5.9953
H      9.0053      9.1686     12.0321
H     22.1217      9.8685     14.1213
H      1.8278      2.6817      3.0640
H      3.2803      5.1848     -0.4222
H      4.7224      4.9503      4.4308
C     12.4741      7.3840     11.6282
C     15.6580      5.9921     15.9042
H      3.4583      7.0169      9.4316
C     -1.7461      4.3117      4.7670
C      0.5550      7.0200      5.4917
H     17.5275      7.7200     20.8989
H      1.8702      2.4112      5.1450
C      1.2352      5.7410      4.8809
H    -10.5259     11.0942      8.1195
H      1.3637      0.6921      1.6834
H     16.2154     11.0004     16.0986
H      0.0985      7.0742      8.8232
C     -5.0835      6.1653      9.0856
C     -8.4132     13.6764      8.2442
C      6.5170      7.8751      3.3334
C     -3.9505      9.3474      5.7695
C     -0.1530      6.2169      2.8371
C     -1.3819      6.5396      3.7682
H      4.0364      6.1053     -0.1803
H     -3.5129      2.8973      5.5585
C    -10.7069     13.4143      8.8511
C      0.4237      5.1587      3.6244
C      4.7727      3.1523      2.1076
H      1.3754      5.1139      8.0504
H     -5.6151      7.7688      8.7973
H     -2.2136     12.0212      7.4282
H     -5.3370     10.5984      6.4317
C      2.3427      6.9375      8.9676
C     -1.4512      5.4199      5.7519
C      2.5630      0.5681      1.8996
C      0.9517      4.7060      5.8899
C      2.1272      6.6611      7.2250
C      2.4375      4.6550     -0.1310
H     -1.4135      5.6238      0.8411
H      4.2977      1.3721      1.1169
H      2.8705      0.6738     -0.9247
H     -1.7921     10.7416      6.2538
H      4.8091      0.8576      3.3249
C     -0.5207      9.0352      5.0512
C     -4.1490      6.9088      9.7182
H      4.6483      4.9639      1.0603
H     21.0051     10.5439     14.5256
C     -4.3711     11.9451      7.7801
H     10.0023      6.9267      1.6740
H     -7.2268     14.7504      9.1171
C     -0.0214      7.4159      7.7869
C      0.6889      3.5648      5.3045
O      8.3149      5.2255      4.6797
C     -1.4450      8.1794      5.8729
C     -6.4162     14.7930      7.0634
C      5.1614      1.9375      6.1860
C      3.2396      0.8834      5.8780
H      9.2426      5.7232      4.6722
H     -6.3550     15.8671      7.3463
H      4.9327      3.7780      8.5072
H     -4.5352      9.4672      9.2657
H     -0.4950      9.6521      6.8689
H     19.0153     12.0479     18.3699
C      1.9155      4.9945      7.1035
H     -0.2770      4.1484      1.8139
C      3.6957      5.4406      5.0610
C     -9.7733     15.4185      9.5550
H     21.6503      9.0698     15.5430
C      8.3419      7.3050     10.8983
H      3.6661      5.6728      8.1241
H     10.8514      6.4253     10.2672
H     -5.6773     14.1234      6.2832
C      3.5424      2.9196      4.3028
C     17.8819     10.0606     19.0528
C     -6.1830     13.0247      8.6435
C     -5.1013      9.5691      8.5330
C      5.4845      4.6555      8.2103
C     -7.0260     14.1441      8.3234
H      0.0413      4.0980      7.8945
H      2.7235      3.5366      0.1582
H     19.9059     10.0357     13.6332
H      7.6659      5.4798     11.6515
H     -0.9257      2.8979      6.2680
H     -9.4261     17.3302      9.2248
H     -2.8369      9.4627      3.5753
