259

C     19.7386     -3.9446     13.6924
C      4.1969      1.8127      6.8938
C      2.6752      2.9861      1.3798
C      7.0836      4.7131      2.1008
H     -3.4083      3.6005      3.0552
C      7.2749      3.5080      2.8376
C      3.1120      4.1209      5.4273
C      6.7046     -3.1850     10.5264
C     15.9800     -5.5074     19.2381
C      6.3105     14.9369      4.2539
C      6.2147     -4.4858     10.0984
C     13.9265     -3.9558     13.7725
N     -0.1193      3.5236      6.3178
C     13.6096      5.9565      0.7439
C      3.0911      4.4124      7.0824
C     15.4839     -6.5972     17.3785
C     16.4519     -2.3346     16.4816
H     -2.2634      3.2856      6.1789
H      5.8671     -1.5900     11.3968
C     16.7010     -3.7825     16.2416
H      7.2142     -2.6646      9.5478
H      8.0874      3.6267      3.6703
H     13.2100     -5.6390     10.7895
H     -1.3144      5.6298      6.8195
C      2.8706      2.9530      7.6000
H      9.8193     10.3111      0.5004
H      7.2363     15.2105      4.6888
O     14.3356     -1.9943     15.2512
C      8.1319     12.9304      8.7643
C      7.0696      5.9179      9.6685
H     15.8690      6.6471      9.2427
C      6.2129      2.5282      2.9158
H      6.1011      4.8955      7.2137
H      7.3650     -3.4089     11.2806
H      4.5567     -2.5639      8.2941
H      4.3988     -5.4249      9.3663
C     17.4736     -2.0814     17.4487
C      9.9957      8.3988      4.9210
O     14.8003      8.7825      4.8889
C     11.3058      7.6661      6.8564
C      8.7719     -4.5817     12.1264
C     20.1850     -5.0360     12.9553
C      6.4593      7.2140     -0.8817
H      5.3999      3.7253      1.5310
H      1.4051     -0.7564      3.4121
H      8.5835      5.6416      8.2720
C      6.8776     -5.7763     10.6787
C      7.6284      5.5396      3.0328
H     21.6942     -3.8193     14.5193
C     -1.0436      6.6685      4.9513
H     15.2606     -3.9247     20.2279
H      4.4105      0.6643      2.7093
H      4.8894     -2.0683     10.0286
H     15.0464     -6.0069     13.5516
C     10.0235     11.7937      7.1865
C      5.7516      5.4102      9.3068
O      4.9171      3.2011     10.4328
C     15.8423     -5.2213     17.8529
C      4.4873      6.1958      0.0141
C     17.4184     -3.6999     15.1238
H      8.9654      8.0596      4.7264
H      8.2972      7.5599      2.4678
H      3.9932      1.2967     10.2180
H      6.0470     12.2425      9.8565
H     17.6921      0.0228     17.1449
C     -0.1405      3.3372      8.8633
C     13.4791     -4.6164     12.3615
C      1.6725      2.0526      7.1423
C     12.5250      6.4156      1.3505
H      5.3661      7.6552     -0.8859
H     -3.1846      3.5049      4.8598
H      5.8917     17.6296      3.6931
H      4.9013     -2.9621     11.6905
C     10.0216     -5.0604     12.9270
O     15.2776     -1.9822     13.2326
C      6.0651     -4.5374      8.5349
C     16.3592     -4.1297     19.8573
C      3.4477      1.5721      9.2148
C      3.1669      1.7058      4.7318
H     11.3164     10.8305      1.3649
C      3.9567      3.6159      3.3033
H      8.8438      9.9890      5.8858
C     10.8378      8.7431      0.8694
C     11.1170     -5.9164     11.9006
H      9.9384      9.7626      7.5194
C      5.3358     15.9496      5.1611
H     18.8382     -0.7046     18.3560
H      8.3211     14.0013      8.6214
C      2.7415     -0.7070      8.8205
C      4.7484     -1.5582      7.8020
C     -2.2288      5.1108      3.5764
C     16.6789     -3.1937     18.9644
C      2.4551      3.5826      2.7198
C      4.7032     -4.6939     10.0614
H      2.5361     -1.6960      9.0538
H     16.2408     -4.4125     14.1289
H     -3.5836      5.2995      2.2201
H     15.2908      4.3375     -0.3574
O      5.4102      7.0694      6.4462
C     13.6193      7.9446      4.6070
H     17.0718     -2.3167     19.6994
C     10.3964      8.8825      3.6367
C     10.8411      7.6952      2.9288
H      5.4253     -4.0908      7.8790
C     10.1460      7.5385      7.5407
H      1.0499      2.6326      4.6269
H     14.5330     -5.7138     11.0493
H      5.9403      1.6138      2.1576
H      0.7516      3.5432      9.5065
C      3.3534      1.6059      1.3019
C     12.9247      8.6286      2.1036
O      6.5582      4.3943     11.2290
C     -0.1255      3.9353      4.1643
C      7.4808     -2.1588      7.5666
H      2.2354     -0.4031      5.1477
H      9.1978      7.7970      7.0964
H     15.7551     -3.0890     18.3690
H     13.5250      5.5973     -0.2221
O     13.1473      9.4084      6.4465
C      6.1887     -1.1650      7.7867
C     13.4009      6.9399      6.7319
C     15.1536     -4.8918     14.2580
H     15.5811     -4.4483     16.0374
C     13.6287      7.6397      3.0820
H      8.7503     12.5062      9.6818
C      2.5940      0.8653      3.7720
C      0.3680      2.5647      7.4519
C     10.3672     10.4327      6.8067
C     -2.1250      3.2572      5.0897
C     18.1487     -0.9905     17.6765
C      2.8100      3.9534      9.8523
C     11.7469      7.7320      1.5934
C      3.9844     -0.6751      8.2374
N      1.9659     -0.2796      4.1018
H      2.2732      2.0920     -0.7541
C      2.7640      1.1554     -0.0730
O     16.8920     -7.1988     15.0345
C      9.4094      6.6259      1.0291
H     18.5370     -3.7240     19.0350
H     -0.5023      1.8919      7.2532
C     -3.0210      4.5511      2.7479
C     10.0291      8.0309      9.1696
H      1.7730      1.0341      6.6788
H      7.6654      4.7683      0.2515
H      6.8619     -4.4322      6.6935
C     10.6634      9.9821      1.0489
H      4.5177     -4.1610      9.3970
H     14.2973      7.7859      8.5771
H     -2.8211      5.4722      6.0806
H     11.8251      9.7042      4.9799
H      2.3106      0.2358      0.1437
H     -0.3043      2.6200      9.5514
C     14.8376     -5.5003     15.4925
H      4.9634      6.1425      9.8309
C     14.8605     -4.8530     11.8056
C      5.3768     -2.4758     10.9575
H      2.7807      3.6824     10.7386
H     15.6749     -2.2356     17.4179
C      4.3320      8.3435      4.3601
C      7.4614      6.9479      2.5191
C     20.6449     -3.1555     14.5498
C     18.4275     -4.6176     14.7619
C      4.2164      6.3319      6.2721
C      1.7940      4.9262      2.6220
C      5.7859      5.9129     -0.0422
C      5.4332      7.2833      4.0962
C      7.7187      6.6934      1.0754
C      4.2189      5.2773      7.5873
C     14.3043      4.9804      1.2920
H      8.6773      5.9974      4.6180
C      6.1382      7.0879      5.3084
H      9.4117      5.5335      0.6807
C      6.8966      5.4396      0.7734
H     -0.3151      3.1625      3.2799
H     11.0740      7.7618      9.8304
O      7.4148      7.3666      5.6360
H      8.7994     -3.4301     12.0139
H      1.9148      2.9475      3.4140
H     12.8307      9.5078      2.5349
H      4.4286      5.4285      4.3512
C     12.3926     -5.2563     11.7422
C     15.6077     -6.7827     15.7657
C     -1.4291      4.4033      4.6180
C      0.2512      6.6485      5.3747
H      3.9981     -4.1943     10.7198
H      3.2734      0.0281      6.1037
C      1.1723      5.7637      4.6289
H      3.3582     -0.3611      1.9259
H     16.1153     -2.1344     15.4765
H     12.0693      6.4719      8.6179
C      8.1106      6.2283      8.9070
C      4.3474      0.9251      8.1881
O      6.0411     17.2245      4.8568
C      6.1888      7.6551      2.9723
C      9.8262      9.9345      5.5787
C     12.6475      6.3104      2.8382
C     -1.5185      6.4834      3.5487
H     17.1811     -4.1760     20.6448
H      4.3438      6.9943     -0.5903
H     -1.5484      2.6629      4.5167
C      2.2510      0.5754      9.1240
C      0.5951      5.1833      3.3663
C      5.1310      3.4385      2.5231
H      7.9507      8.2203      9.5452
C      5.4794      4.2988     10.4459
H     10.4890     12.6415      8.0265
H     13.6206     -2.3967     15.9796
H      7.8516     -2.1354      6.4621
C     14.8654      6.7828      8.7642
C     -1.7533      5.4179      5.6741
C      3.2805      0.5190      2.5617
C      1.6815      4.5929      5.4082
C     14.7441      6.4819      7.0529
C     15.2883      4.0346      0.5761
H     11.8863      5.4801      0.7270
H      4.4203      2.0653      1.1999
H      3.6696      0.7591     -0.4907
H     11.3868     10.6065      7.0764
H      5.8191     13.9416      4.2294
C     12.4079      8.9304      5.2482
C      8.6957      7.4702      9.5108
H      3.9015      6.3167      1.2559
H     21.0346     -2.0639     14.3874
C      8.6379     11.7434      7.8735
H     10.0197      6.9883      1.9726
H     10.3082     10.5999      4.8540
H      5.8235     14.8615      9.5660
C     12.4328      7.1786      7.7092
C      0.7413      3.5664      5.1664
O      7.9764      5.3865      4.3733
C     11.3324      8.0867      5.4759
C      6.5209     14.9497      7.3838
C      5.5914     15.4500      6.7027
C      3.6660      1.0289      5.8453
H      5.8235     -5.4390      8.1210
H      5.1787      3.3435      8.5730
H      8.1093     -4.5517      7.9704
H     13.2376      8.7644      7.2418
C     14.6641      5.0447      7.0713
C      3.6477      5.4548      5.1526
C      3.1955      2.9977      8.9491
H     20.2464     -2.7418     15.3566
C      8.4927     -5.5235     11.0163
H      3.6322      6.0676      8.1579
H     10.8604     -5.9648     10.6248
H      7.4471     14.3849      7.6275
C      3.9377      3.0368      4.6136
C     17.7094     -3.4250     18.2137
C      6.5479     12.8288      8.9658
C      7.1400     -3.9376      7.5985
C      5.4271      4.6351      8.1129
C      5.9109     14.2211      8.6965
H     -0.7811      4.2301      8.8502
H      9.7084      9.0138      9.0410
H     10.2439     12.4974      6.4911
H     18.7015     -3.2270     13.3128
H     -0.7878      4.2359      6.4836
C     14.4547     -2.6256     13.9060
H      9.7102      9.4632      3.2344
