262

C      6.7424      9.0619      1.0045
C      4.2775     14.5394      7.0824
C     16.0388      3.2190     14.1399
C      6.6516     18.0606     15.4180
H      9.1975      3.6650      2.6127
C      7.3112     16.5042     15.6779
C      3.3512     17.0281      5.5686
C      6.6607     22.5960     10.6997
C      3.2426     20.0749      6.6023
C      6.5453     14.8743     17.2209
C      6.3177     21.5082      9.8995
C     13.9872      8.8300     13.7991
N     12.9695      3.0749      6.4010
C     13.7327      5.7913     13.4081
C      3.2405     17.0184      7.1441
H     13.7798      5.8211     12.3583
C      2.6553     19.1323      4.5016
C      3.9217     10.8875      3.3995
H      1.1878     13.7453     22.6032
H     11.0822      2.3380      4.7440
H     17.3154      6.5406     16.2049
H      6.2878     24.2290     11.6224
C      3.8094      9.2626      3.1316
H      7.7487     23.0882     10.2680
H      7.9116     16.4225     16.5353
H     12.9944      7.4178     10.9988
H     12.1073      4.8428      6.2815
C      3.0293     15.5086      7.6236
H      9.8482     10.2577     12.7834
H      7.6404     14.7909     17.5258
O     14.4022     10.4100     15.4095
C      8.1850     12.6297     21.6789
C      6.8451     19.2506      9.5542
H     14.0059      6.2680      9.4020
C      6.4780     15.3299     15.7547
H      6.6100     17.9114      7.1888
H      7.0178     22.5210     11.8598
H      4.9028     10.5845     21.5788
H      4.4468     20.4566      9.3929
C      4.5672     11.0249      4.6996
C     10.1185      8.3638     18.1177
O     14.8587      8.4825      5.0916
C     11.3721      7.5751      7.0944
C      8.5446      8.1700     12.1163
C      7.2424      7.8860      0.2358
C      6.1746     20.2928     12.3716
H     18.0465      4.0386     14.3407
H      4.4047      9.8460      1.3528
H     15.4442     -0.4512     15.6952
H      8.6720      5.8631      8.2545
C      6.7030     20.1932     10.6640
C      7.3547      5.8584     16.2912
H      8.9049      9.2291      1.7255
C     11.8844      6.6566      4.9862
H      3.1174     21.0982      8.3751
H     17.9533      1.0169     15.4307
H      5.2058     24.3798     10.1635
H      3.7474     19.6964     13.1565
C      9.6379     11.7555     20.0342
C      5.9772     18.2791      9.3689
O      5.1357     16.3356     10.1997
C      3.0518     20.4722      5.0469
C      4.3717     18.7379     13.1094
C      4.4659      8.9748      1.9624
H      9.2457      7.6516     18.1300
H      8.6943      7.6695     16.0539
H      4.3241     13.9106     23.4911
H      7.0972     11.9735     23.1256
H      4.7135     12.5801      3.7858
C     13.1908      3.1740      8.6758
C     13.1722      8.6085     12.2884
C     14.8516      2.0265      6.7828
C     12.5653      6.4401     14.3223
H      5.3698     20.8087     12.1264
H     10.4804      3.1869      5.9738
H      6.2405     17.7289     16.9715
H      4.8071     23.0410     11.5955
C      9.8892      7.4411     12.7382
O     15.2234     11.0240     13.2595
C      6.6233     21.6884      8.3046
C      3.5597     21.2440      7.3913
C      3.4256     14.1545     22.5490
C     16.1344      1.5891     17.6872
H     10.8494     10.5214     14.2866
H      5.7042     12.7145     19.8175
C     16.9866      3.4807     16.2343
H      8.3025      9.9377     18.6072
C     10.7610      8.4808     13.3518
C     11.0770      6.8043     12.1278
H     10.6477      9.7220     19.4339
C      5.5673     15.7304     18.1646
H      6.0649     12.6967      4.8797
H      9.1398     13.3510     21.5787
C      2.4707     12.3600     21.6062
C      4.8346     11.3989     20.7794
C     10.5063      5.2207      3.5245
C      3.2452     22.6969      6.6487
C     15.8313      3.8045     15.4764
C      4.8978     21.3896      9.7075
H      1.6047     11.6288     21.3435
H      9.0728      4.9694      1.9217
O      5.5442     19.2311      6.3239
C     13.5854      8.1665      4.5822
H      3.1519     23.4006      7.5036
C     10.2926      8.4601     16.6585
C     10.8476      7.6633     15.8510
H      5.8716     22.2678      7.5918
C     10.1715      7.7448      7.7935
H     14.2732      2.6743      4.6191
H     14.7284      7.4343     11.1808
H      6.4163     14.4227     15.2495
H     13.8590      3.3866      9.5916
C     16.7292      1.9082     13.9407
C     13.0053      8.7895      2.1202
O      6.7721     17.3417     11.6030
C     12.7204      3.9037      3.9704
C      7.1066     11.5590     19.7996
H     14.5211     -0.2422     17.3786
H      9.1421      8.0723      6.9964
H      2.2417     22.6601      6.6820
O     12.8437      9.7356      6.1954
C      6.0298     11.9903     20.6024
C     13.6297      6.9963      6.6673
C     15.0467      7.8183     14.0662
H     15.5833      8.1833     16.0761
C     13.5898      7.6342      3.1267
H      8.3884     11.7850     22.4699
C     15.7281      1.2825     16.3015
C     13.6486      2.4810      7.3291
C     10.1922     10.6149     19.0788
C     10.4769      3.3002      4.9413
C      4.7018     12.5303      4.8921
C      2.8963     16.8588     22.8602
C     11.7844      7.8684     14.6191
C      3.8936     12.3793     21.2343
N     15.2421     -0.0345     16.5541
H     16.0075      2.0586     12.1596
C     16.2187      1.2400     12.7916
O     16.8959      6.2773     15.4475
C      9.1757      6.3889     13.8472
H      5.4711     22.4115      5.9372
H     14.9770      0.9861      7.3165
C      9.8210      4.5825      2.4264
C     10.1635      7.5768      9.2555
H     15.3630      1.6214      5.7145
H      7.1971     17.9920     13.1884
H      8.1565     22.6444      7.1756
C     10.5154      9.8021     13.4857
H      4.5503     22.1309      9.2995
H     15.7520      6.3461      8.8701
H     10.2008      5.6054      5.9534
H     11.5994      9.5987      4.3509
H     14.0318      8.6118     10.5930
H     15.4137      0.4040     13.1077
H     12.2989      3.1359      9.4666
C     15.0581      7.4885     15.5653
H      5.0072     18.7075      9.9560
C     14.3155      8.3242     11.3901
C      5.5161     23.6913     10.9708
H      3.1381     16.6676     23.8618
H      4.2665     11.0910      2.4336
C      4.0847     21.5405      4.4362
C      7.5747      7.2842     15.7975
C      8.0480      9.6887      1.4631
C      5.7680      8.3808      1.9633
C      4.2626     18.9630      6.4623
C     14.8428      4.9487     15.4067
C      5.6025     19.1449     13.0679
C      5.2782     20.6114      4.2269
C      7.7579      6.7682     14.2367
C      4.3340     17.8566      7.7523
C     14.5444      4.8339     13.9116
H      9.0206      5.9956     17.1559
C      6.0588     20.2290      5.5586
H      9.1390      5.5113     13.0073
C      6.7297     18.5793     13.9646
H     12.2771      2.9638      3.4353
H     10.8116      7.5633     10.0662
O      7.3660     20.3282      5.5862
H     12.5790      9.8924      2.5193
H      4.3642     18.3881     14.0802
H      4.5157     18.6244      4.3937
C     12.3400      7.5792     11.8720
H      6.5984     17.5904     18.6139
C     15.6239      6.1650     15.8825
H     14.8817      7.7428      9.2002
C     11.3717      4.4319      4.5036
C     13.4045      6.8664      5.2011
H      4.4279     21.6039     10.5830
C      1.2765     18.6181      4.7458
H     16.6828     -0.2318     14.5448
H     12.3102      6.4867      8.6531
C      7.9139      6.4402      8.7872
C      4.5897     13.8370     21.5143
O      5.8989     17.4900     18.0044
C      6.2856      7.9068     16.1492
C      9.3751      9.8507     18.1517
C     12.8716      6.2249      2.8165
C     11.4471      6.4440      3.5237
H      4.5275     21.0769      7.5568
H     14.9838      9.1596     11.5629
H      9.4268      3.3664      4.4499
C      2.1943     13.4655     22.3942
C     13.5094      5.1576      3.4031
C     18.1254      3.0998     15.2243
H     13.9038      4.4350      7.7802
H      8.7866     22.2370      8.9006
C      6.0686     17.1234     10.6006
H     10.1331     12.0977     21.0018
H     14.5041      9.7364     16.0976
H      7.1122     11.4884     18.7437
C     14.7682      6.8483      8.6637
C     11.3571      5.4116      5.5938
C     16.8143      0.9358     15.1255
C      1.6851     17.4901      5.6647
C     14.9146      6.4537      7.1132
C     15.3825      3.8950     13.2478
H     11.7550      5.7253     14.0206
H     17.8772      2.2231     14.0237
H     10.8225     11.3148     18.5576
H      5.9956     13.9303     17.2848
C     12.3664      8.8954      5.1485
C      8.7551      7.2547      9.6879
H      5.5264      7.2730      1.5195
H      8.0175     10.0488      0.3736
C      8.1844     12.1398     20.3868
H      9.9551      6.6413     14.7340
H      9.3712     10.3779     17.0967
H      5.7344     14.8942     22.7784
C     12.5526      7.0182      7.5362
C     13.7507      3.4898      5.1108
O      7.9937      5.5934     17.5196
C     11.4059      7.9068      5.7842
C      6.5712     14.6940     20.3927
C      5.6218     15.1244     19.5337
C      3.7440     13.5974      5.8027
H      6.9999     20.8197      8.0708
H      5.7607     16.5617      8.0697
H      7.5991     23.5850      8.5439
H     12.9862      9.3505      7.0314
C     14.7425      4.8172      7.1030
C      3.7233     18.3839      5.1781
C      3.0275     15.6097     22.1353
H      8.2985     10.5966      2.0376
C      8.3341      7.1689     11.0842
H      4.1046     18.5086      8.7167
H     11.0074      6.2169     11.0242
H      7.5344     14.9819     20.5835
C     16.9757      2.9391     17.4783
C      4.3071     22.7492      5.4360
C      6.7281     12.6689     21.9923
C      7.8236     22.4273      8.2079
C      5.8095     17.5629      8.0285
C      5.9485     14.0334     21.7953
H     13.0453      4.0708      8.3978
H      9.8501     12.7904     19.7345
H      6.3454     10.1040      0.6766
H      7.7940      6.3429     11.3952
H     11.7960      3.0838      6.4926
C     14.6158     10.1604     13.9264
H      3.1343     17.7604     22.4720
H      9.8945      9.2896     16.2143
