262

C     19.9916      9.2341     14.0385
C      3.8388      1.6766      7.1308
C      2.2180      3.0580      1.4671
C      7.1995      4.8371      2.4869
H     -3.5472      3.9336      2.7481
C      6.9732      3.7018      2.8430
C      3.4364      3.8526      5.4002
C     -6.1683      9.7752      9.9410
C     16.0334      7.1575     19.5869
C      5.9877      1.7600      3.7978
C     -6.9846      8.9101      9.1833
C     13.8927      8.7800     13.8065
N     -0.3876      2.6974      6.5881
C      0.7339      6.1279      1.0306
O     -1.3425      3.1282      1.8082
C      3.1465      4.0025      6.8536
C     15.5181      6.2199     17.5780
C     16.2415     10.2694     17.0673
H    -11.7978     13.7704      9.4979
H     -3.4865      3.3297      4.6936
H     17.3057      7.1035     15.7379
H     -6.7369     10.4081     12.0489
C     16.9169      9.1015     16.2747
H     -8.5898      8.9195     10.2777
H     -5.7876     10.7062      9.4328
H      7.5213      3.5232      3.8345
H     12.5096      7.1792     11.0655
H     -0.9665      5.1786      6.8596
C      2.9550      2.7271      7.5134
H      7.0858      1.6611      4.0243
O     15.4874     10.3080     14.6735
C     -4.9477     12.5038      8.8576
C      6.7580      6.3359      9.6870
H      2.3254      0.0709      6.6784
H      3.0322      6.8475      8.9472
C      6.0103      2.6060      2.4918
H      6.4894      4.8147      7.4288
H     -5.3397      9.2461     10.5895
H     -8.6191     10.5322      8.1768
H     -7.5156      7.8536     10.6605
C     17.6053     10.6178     17.6527
C     -2.9615      8.8136      4.9837
O      1.8862      8.3826      4.8603
C     -1.5537      7.9801      6.9551
C      8.5532      8.3170     12.0366
C     20.3145      7.9116     13.0376
C      6.3353      6.8957     -0.6835
H      4.8822      3.9347      2.1143
H     17.7040     10.4701     14.6864
H      1.3089     -0.4710      3.1221
H     -5.5726      6.7117      7.8158
H     16.4660     10.7906     14.2509
C      7.1608      6.3924     11.0463
C      7.8999      5.6684      3.4271
C     -1.2025      6.7003      5.0596
H      4.1184      0.4430      2.0572
H     -7.8355     11.4891     10.9214
H     15.5253      6.9466     13.6017
C     -3.0725     11.4667      7.7566
C      5.6217      5.6191      9.1647
C     15.8620      7.6486     18.2136
C      4.8562      5.8657      0.6744
C     17.7875      9.6201     15.3231
H     -3.8288      8.4271      5.4877
H      8.8073      7.4512      3.6547
H     -8.6431     14.1283      9.8053
H     -6.8310     12.0879      9.6458
H     17.3069     12.2090     16.5015
C      0.1618      3.9413      8.7143
C     13.5741      8.3480     12.3842
C      1.5214      1.9719      7.7562
C     -0.6365      6.3309      1.5775
H      5.7553      7.8827     -1.0859
H     -2.0914      2.5087      4.1591
H     -7.7306      9.6282     11.4959
C      9.9577      7.8122     12.6519
O     14.4605     10.8614     12.8065
C     -6.5408      8.5845      7.8851
C     16.4085      8.3551     20.3725
C     -9.5332     14.5758      9.4778
C      3.0377      1.3636      4.8567
H     -0.7240     10.4151      0.4106
H     -6.6125     12.4959      6.8465
H     -9.4788     16.9442     10.9204
C      3.7342      2.9197      3.2904
H     -4.0512     10.1768      6.1309
C     -2.1452      8.6718      0.6391
C     11.2475      7.1659     11.9836
C      5.2063      2.1006      5.0289
H      4.2606     -0.0501      5.9173
H     -4.8135     13.5464      8.4580
C    -10.6239     12.3250      8.4236
C     -8.3117     11.4467      7.7901
C     -1.8335      5.1173      3.4967
C     16.6095      9.3991     19.6046
C      2.3064      3.5791      3.0152
C     -8.0530      8.3098      9.7718
H     15.8295      8.8268     14.1649
H     -2.7386      4.9527      1.6305
H      2.2527      4.0820     -0.1796
O      5.3404      6.7616      6.4727
C      0.6675      7.9192      4.5242
H     -8.5861     11.4196      6.5976
C     -2.8719      8.7252      3.4820
C     -2.1421      7.6605      2.7775
H     -7.3702      9.2616      7.6285
C     -2.7237      7.4682      7.7259
H     14.1602      8.4252     10.4162
H      6.6470      1.8193      1.7906
H      0.3138      3.7429      9.8203
C      2.9793      1.8807      1.1269
C     -0.0693      8.5419      2.0318
C     -0.2922      3.6641      1.4043
C     -0.1429      4.0118      4.3529
C     -5.6158     10.8699      7.0682
H     -3.6684      6.9759      7.4550
H     15.7670     10.2393     19.8484
H      0.7714      6.2242     -0.0130
O      0.1118      9.8669      5.7918
C     -6.8604     11.8292      7.7683
C      0.6361      7.1783      6.7970
C     15.2230      7.9924     14.0902
H     15.6152      8.0588     15.8849
C      0.5973      7.6039      3.0565
H     -4.2265     12.2224      9.5439
C      2.6893      0.6067      3.5889
C      0.2636      2.5685      8.0017
C     -2.2662     10.7372      6.7631
C     -2.3394      3.2292      4.9374
C     18.1130     11.7469     17.0857
C     -9.7002     17.1289      9.7269
C      0.6038      2.5672      0.9751
C     -1.3489      7.8308      1.7030
C     -9.3175     12.4698      8.2858
N      1.7038     -0.2227      4.0351
H      3.7111      1.6450     -0.6109
C      2.5889      1.3057     -0.1648
O     17.0258      6.1997     15.8121
C      9.4428      6.6304      0.5101
H     18.7654      9.1161     18.7361
H     -0.4699      1.6475      8.3001
C     -2.9187      4.7236      2.7636
C     -2.6637      7.4634      9.1860
H      1.4133      1.4411      6.8197
H      7.5951      4.7879      0.2202
H     -5.5963      9.0319      6.1101
C     -1.2658      9.6252      0.0048
H      4.9220      6.0937      8.7308
H      1.8309      7.7933      8.8366
H      8.2628      5.7539      5.4599
H     -1.0110      9.1701      4.0161
H     15.6169      8.6979     11.5973
H      2.2247      2.1589     -0.5936
H     -0.7703      3.3684      8.9083
C     14.9661      7.3822     15.4884
H      5.3572      4.9979     10.2137
C     14.6142      8.5073     11.2841
C     -7.1861     10.4600     11.0560
H     15.3234     10.0212     17.6194
C      4.4521      8.3477      4.5394
C      7.8697      7.0673      2.8535
C     21.4624      9.4073     14.6943
C     19.0020      8.9232     15.0753
C      4.0035      6.0912      6.5121
C      1.8594      4.9028      2.9364
C      6.0265      6.0308      0.4240
C      5.7638      7.4982      4.2092
C      7.8571      6.6509      0.9246
C      4.2233      4.8860      7.3539
C      1.6935      5.2306      1.4412
H     -2.8734      5.5090      6.0291
C      6.2810      6.9387      5.4175
H      9.9902      5.7273     -0.0974
H      0.0136      1.7294      1.4440
C      7.1575      5.3080      1.0704
H     -0.1600      2.9925      3.7859
O      7.4114      6.8496      5.8328
H      8.8222      9.4369     11.7402
H      1.6306      3.0542      3.8835
H     -0.2027      9.6426      2.0282
H      3.5972      4.6092      0.5621
H      4.5234      5.8497      4.3406
C     12.3968      7.6372     11.9952
C     15.6645      6.2901     16.1436
H      0.9850      6.1422      9.2818
C     -1.6339      4.4669      4.7760
C      0.3772      6.7295      5.4116
H     -8.3938      7.4036      9.2922
H      2.0654      2.0238      5.1777
C      1.1837      5.7566      4.9698
H      2.6674     -0.0818      1.6513
H     16.3228     11.1982     16.4152
H     -0.4312      7.1318      8.5728
C     -5.0303      6.4742      8.8060
C     -8.7824     13.8580      8.3744
C      6.6413      7.9005      3.0562
C     -3.0964     10.3688      5.5256
C     -0.2401      6.4724      2.9614
C     -1.6071      6.6408      3.5728
H      3.7701      6.1776      0.3984
H     -2.1685      3.0532      5.8977
C    -10.9391     13.7654      8.8706
C      0.6557      5.2239      3.7249
C      4.6209      2.9804      2.1897
H      1.6475      4.5221      7.9318
H     -2.4417     11.8485      8.6567
H     -5.8633     11.2180      5.8754
C      1.8187      6.8136      8.7305
C     -1.8485      5.5115      5.8909
C      3.1275      0.6240      2.2620
C      0.9642      4.8158      6.1092
C      1.7946      6.4830      7.3259
C      2.4823      4.3494      0.6649
H     -1.3229      5.6167      1.0206
H      3.9191      2.0985      0.9910
H      2.0475      0.6906     -0.7089
H     -1.5199     11.5767      6.4599
H      5.2533      1.1402      3.2089
C     -0.5372      8.8079      4.8992
C     -4.0201      7.0339      9.6502
H      5.1312      5.0329      1.5258
H     22.3416      9.8605     13.9732
C     -4.4214     11.7240      7.7910
H      9.8233      6.5642      1.4108
H     -2.8730     11.1831      4.9256
H     -6.9308     14.1238      9.4345
C     -0.3777      7.5009      7.6600
C      0.1763      3.7396      5.6793
O      8.4055      5.1656      4.6141
C     -1.6434      8.0815      5.5274
C     -6.6830     14.2637      7.2875
C      5.2132      1.5193      6.3230
C      3.2176      0.6221      6.0629
H      9.2714      5.5425      4.4724
H     -6.4633     15.3326      7.8838
H      5.8725      3.8727      8.4140
H     -4.3072      9.4618      7.4284
H      0.9173      9.2017      5.9201
H     18.7016     12.4510     17.9859
C      1.9308      4.9603      7.1382
H      0.0731      4.6378      0.9421
C      3.8557      5.3909      5.2006
C     -9.5109     16.0151      8.8659
H     21.3909      9.6902     15.8252
C      8.2029      7.3906     11.0198
H      3.9363      4.8296      8.4275
H     10.8811      6.3024     11.6254
H     -5.6303     13.9523      7.2292
C      3.8855      2.5141      4.6957
C     17.6343      9.4401     18.4644
C     -6.3695     12.5142      8.7973
C     -5.3183      9.2890      7.0697
C      5.6128      4.7888      7.9826
C     -7.1946     13.7927      8.4671
H     -0.2454      5.0670      8.4547
H     -2.1344      7.8600      9.9915
H      0.7729      2.2560     -0.0581
H     19.8808     10.2972     13.3060
H      7.1909      5.0915     11.4256
C     14.5356     10.2238     13.7773
H    -10.3016     18.0657      9.6966
H     -2.8374      9.7734      3.0865
