273

C     19.6852      9.1955     13.8240
C      4.4429      1.7733      7.0135
C      2.9211      3.2045      1.0451
C      6.9164      5.2361      2.6259
H     -3.2879      3.7721      2.6339
C      7.7400      3.9608      2.6330
C      3.1463      4.0437      5.1539
C      6.1431      9.7531     11.0996
C     15.6721      6.9872     19.4637
C      6.4931      2.1369      4.2704
C      5.9043      8.3674     10.3378
C     13.6509      8.5794     13.4734
N     -0.0520      3.0146      6.1356
C     13.2608     -7.2454      0.2240
O     -1.3512      1.6878      2.3801
C      3.0977      4.0577      6.8848
H     13.4286     -6.3915     -0.6591
C     15.4296      6.2183     17.2964
C     16.3739     10.6465     17.0460
H      1.8506      0.3435      9.6335
H     -2.0157      2.5896      5.7486
H      5.8331      4.9826      2.8008
H      7.1010     10.9811      9.6397
C     16.9220      9.4315     16.5639
H      7.2438      9.5926     11.6540
H      8.5169      3.7789      3.3099
H     12.0761      7.1728     10.4977
H     -0.9383      4.8778      6.5478
C      3.1136      2.6207      7.5316
H      9.5537     -2.6687      0.2588
H      7.5801      2.5803      4.3755
O     14.8892     10.2612     14.6540
C      8.8902      0.1733      7.9030
C      6.7027      6.2053      9.7151
H     13.3935     -6.5347      9.0867
C      6.5638      2.8004      2.8180
H      6.0479      5.2949      7.5511
H      5.3978     10.1163     11.7278
H      5.8372     -2.4305      8.1699
H      4.0947      7.1083     10.7592
C     17.3148     10.7844     18.1310
C      9.8710     -4.7139      4.8243
O     14.8790     -4.3129      4.9430
C     11.0943     -5.4531      6.9395
C      8.6375      8.2747     12.0609
C     20.4139      8.0516     13.1623
C      6.3712      7.2733     -0.5366
H      5.3769      3.7386      1.1525
H     17.2773     10.1642     14.5860
H      0.5397      0.6398      4.3110
H      8.7486     -7.6282      9.2502
H     15.2314     10.4792     17.5834
C      6.7124      7.2335     10.7868
C      7.8894      6.1642      3.4638
H     21.0282     10.7652     12.8782
C     -1.2251      6.4096      4.8689
H     14.8795      8.2901     20.7149
H      4.2742      0.8072      2.8025
H      5.2960     11.2636      9.7467
H     17.7793      6.9169     15.0233
C     10.5628     -1.9081      7.6112
C      5.5800      5.5328      9.5390
C     15.7977      7.5147     17.9563
C      4.9301      5.7091      0.0067
C     17.8319      9.6441     15.4887
H      9.0964     -5.5810      5.0265
H      8.4610      8.0198      3.1376
H      3.6531      0.9058     10.5646
H      7.6358     -0.5142      9.4729
H     19.3678     11.2158     18.3313
C     -0.0312      2.4810      8.5504
C     13.1875      8.1359     11.9712
C      1.7652      1.7116      7.1394
C     12.3176     -6.6006      1.1828
H      5.2318      7.6310     -0.7008
H     -3.0971      3.0805      4.4365
H      5.7449      4.6349      5.7538
H      6.6984     11.8234     10.9626
C      9.7965      7.5721     12.8022
O     14.1906     10.4917     12.4937
C      6.0615      8.4549      8.7745
C     15.8629      8.0442     20.4156
C      3.7719      1.2289      9.3675
C      3.5079      1.5853      4.7964
H     11.1360     -3.0175      1.6135
H      4.2097      6.6464     -0.0758
C      4.1438      3.3452      2.9507
H      8.3842     -3.4468      5.7471
C     10.5715     -4.4150      0.6124
C     10.7107      7.4935     11.6382
H     13.4121     -3.7114      6.0620
C      5.6347      3.0115      5.1022
H     18.4280     11.9512     16.8713
H      7.9798      3.5935      1.6560
H      8.4895      1.1690      7.2916
C      3.4222     -0.8033      8.4999
C      5.6587     -1.3670      7.6686
C     -2.2514      5.0034      3.3146
C     16.0535      9.3319     19.8044
C      2.8367      3.7701      2.2519
C      4.2833      8.0095     10.2046
H      2.7973     -1.7862      7.9579
H     15.9008      8.0847     13.0977
H     -3.0214      4.5402      1.2607
H     14.7300     -8.9664     -1.0204
O      5.2419      6.8096      6.4804
C     13.4239     -4.8472      4.5549
H     16.4735     10.2055     20.6051
C     10.4311     -4.3062      3.3472
C     10.9578     -5.3989      2.8018
H      5.6112      9.3172      8.8240
C     10.1243     -5.8659      7.7546
H      1.2211      2.2144      4.4153
H     15.1438      7.3358     11.5524
H      7.3267      2.2668      1.9883
H      0.6188      3.3729      9.0191
C      3.3656      1.7445      1.0655
C     12.8205     -4.5278      1.8061
C     -1.6020      3.0287      1.6885
C     -0.1461      3.8667      3.7368
C      7.8939     -1.7806      7.0333
H      1.7240      0.6925      5.2026
H      9.0497     -6.1048      7.2728
H     15.0829      9.7176     19.4665
H     14.9113      6.5644     13.4065
O     12.7280     -3.0102      6.0248
C      6.8929     -0.8122      7.3344
C     13.3591     -6.3147      6.6352
C     15.0478      7.5885     13.6114
H     15.7292      8.6865     15.3864
C     13.5426     -5.1907      2.7314
H      9.5022      0.6072      8.4964
C      2.5599      1.3451      3.7562
C      0.4956      2.3936      7.2039
C     10.1725     -3.2809      6.8623
C     -2.0252      2.8452      4.6844
C     18.4818     11.4942     17.9366
C      3.1887      3.6936      9.7267
C     -0.2109      3.3945      1.1747
C     11.5736     -5.1964      1.4175
C      4.7856     -0.5795      8.2477
N      1.5885      0.3973      4.2737
H      2.2430      0.0560      0.4297
C      2.6380      1.0391     -0.0210
O     17.1157      6.3388     15.4539
C      9.2684      6.5686      0.7022
H     18.2024      9.2718     19.5400
H      1.9368      0.9194      7.8967
C     -2.4293      4.2584      2.1821
C     10.0059     -5.5764      9.0809
H      1.3166      0.9437      6.4880
H      7.6552      4.8704      0.6519
H      7.1002      9.1495      6.9407
C     10.2073     -3.1455      0.9702
H      4.2962      7.1949      9.0917
H     14.7299     -7.7034      8.8139
H     -2.4224      5.5041      6.1420
H     11.6993     -3.6573      4.2322
H     14.1060      8.2812      9.9625
H      3.4267      0.5871     -0.6262
H     -0.3275      1.3889      8.9374
C     15.2116      7.6642     15.1937
H      4.8449      5.4145     10.4009
C     14.5091      8.3307     11.2729
C      6.3063     11.0324     10.3466
H      3.7224      3.4771     10.6056
H     16.2193     11.4107     16.3551
C      4.2885      8.3963      4.6415
C      7.7640      7.4328      2.6897
C     20.5726     10.3319     13.8833
C     18.9110      8.7381     15.0544
C      3.9514      5.9780      6.2203
C      2.2023      5.0549      2.2981
C      6.1762      6.1494      0.2000
C      5.6336      7.8354      4.3435
C      7.9398      7.0813      1.2450
C      4.1318      5.1210      7.3792
C     14.6529     -7.8562      0.8505
H      7.7991      6.6529      6.2265
C      6.0817      7.3740      5.7091
H      9.0003      5.7451     -0.0558
H      0.5057      2.3249      1.4309
C      7.1207      5.6816      1.2326
H     -0.6353      2.9233      3.6019
H     10.3182     -6.5931      9.5754
O      7.2932      7.5817      5.8875
H      8.8628      9.3253     12.2423
H     12.4432     -3.4375      2.0709
H      4.8255      4.5473      0.2992
H      4.9635      5.3969      4.7681
C     12.0017      7.7768     11.3741
H      7.9031     -6.8996      7.8261
C     15.6075      6.3850     15.7277
H     15.5431     -6.3848      9.2812
C     -1.4380      4.2208      4.4849
C      0.2994      6.7510      5.2506
H      3.5407      8.8142      9.4954
H      3.1656     -0.0557      6.0662
C      1.1547      5.6562      4.6349
H      3.0380     -0.4021      2.4253
H     15.3243     11.3075     14.6845
C      7.9928     -6.8685      8.9925
C      4.9388      1.0469      8.2342
O      6.0950      4.4765      4.8804
C      6.4519      7.8209      3.0640
C      9.4844     -3.3432      5.6839
C     12.9289     -6.6562      2.6841
C     -1.3290      6.2801      3.4228
H     16.5625      7.7349     21.0661
H     14.9711      9.2648     11.8899
H     -2.1123      2.0186      4.0288
C      2.6079      0.2137      8.9655
C      0.8293      5.1209      3.1935
C      5.2648      3.1449      2.2455
H     14.1478     -8.7150      7.6087
H      8.0864      8.2782      8.4027
H     12.4291     -7.6185     -0.4000
H     11.3626     -1.7994      6.9368
H      7.6293     -2.4644      6.2615
C     14.4183     -6.7543      8.7529
C     -1.6536      5.2570      5.5131
C      3.2333      0.7300      2.3676
C      1.4752      4.3350      5.3883
C     14.6354     -6.8258      7.2165
C     15.2497     -8.7973      0.1198
H     11.2976     -6.9890      1.3197
H      4.4451      1.4789      0.7960
H     11.1921     -1.6944      8.4951
H      1.9072      1.6446     -0.4958
H     -2.2632      1.1502      2.4880
H      9.9286     -3.8100      7.8709
H      6.1601      1.0301      4.2950
C     12.1351     -4.1004      5.0136
C      8.5830     -5.6544      9.6155
H      5.5800      6.7659      3.8145
H     20.3061     11.2492     14.2319
C      9.1984     -1.1635      7.4162
H      9.7866      5.8001      1.3181
H      9.4040     -2.4705      5.1413
H      6.2997      2.2460      9.2320
C     12.4741     -5.8098      7.4550
C      0.5305      3.1263      4.9568
O      8.9677      5.7800      3.9604
C     11.1489     -5.1330      5.4858
C      6.6850      2.3035      7.3403
C      5.6814      2.5136      6.4951
C      3.5908      0.9281      6.0313
H      5.2922      7.7827      8.1620
H      5.5466      3.7089      8.0441
H      7.5474      9.9201      8.4038
H     11.0578     -3.7377      6.7493
C     14.5773     -8.2248      6.7999
H     -2.3919      2.4944      1.0373
C      3.7837      5.5029      5.0520
C      3.5178      2.6570      8.9214
H     21.4610     10.1500     14.4484
C      8.0126      7.5812     10.9449
H      3.6016      5.4379      8.2811
H      7.6473      2.7400      7.4480
C      4.1034      2.9147      4.3413
C     17.2271      9.5383     18.9988
C      7.5400      0.0205      8.3528
C      7.1871      8.8989      7.9437
C      5.4142      4.7726      8.0796
C      6.4069      1.3348      8.4231
H     -1.0834      3.0466      8.6441
H     10.4474     -4.5982      9.0916
H     -0.0565      4.3142      1.6249
H     18.9333      9.4729     13.1117
H      0.0125      3.5240      0.0521
C     14.0198      9.8978     13.5316
H      3.1620      4.6224      9.1300
H      9.7749     -4.0187      2.4757
