265

C     19.5321     -4.5679      0.4512
N     -2.9683     10.5961     14.9343
C      3.6239      1.5132      6.9973
C      2.0831      2.3989      2.3660
C      7.7535      4.4256      1.8087
H      9.9721     -6.1831      2.3729
C      7.4835      3.0153      2.3801
C      3.3408      3.9120      5.4251
C     16.1232     -5.7195      6.3695
C      6.5165      1.6452      4.1572
C     -6.8777      8.2547      8.9280
C     13.4425     -4.3453      0.7978
N      0.5352      2.6818      6.1822
C      0.6690      6.1619     13.4761
O     -1.5510      2.5878      2.0053
C      3.6524      3.7799      6.9624
H      0.2231      7.1689     11.0907
C     15.7859     -6.5732      4.4594
C     16.7302     -2.6651      2.7806
H      1.1471      0.9872      9.8711
H     10.6288    -10.3455      5.0419
H     17.3734     -7.5019      1.9895
C     16.9582     -4.0407      2.7304
H     -7.8266      7.7498     10.5100
H     -4.6957      1.8896      8.8431
H      2.0422      3.3049     10.3113
H     10.6166     -6.7704      7.0431
H      6.0456      1.4288      9.1979
C      3.2532      2.7430      7.8076
H      7.4495      2.0684      4.5601
O     13.6698     -2.1287      2.4655
C      7.6193     -0.6404      8.9950
C     -6.7539      6.0077      9.6920
H      2.8567      0.3509      6.3622
C      6.3311      2.7015      3.0789
H     -6.7557      3.6466      7.4666
H      3.0878     -0.9850     10.0057
H      2.4814      8.2202      8.7569
C     17.4349     -2.1323      4.0956
C      9.9440     -3.9512      5.0373
O     15.0398     -4.0947      4.3185
C     -1.5502      8.4188      7.1843
C     -4.3654      8.0416     11.6832
C     20.4290     -5.6565     -0.2872
C     -6.3695      6.5188     11.9308
H      5.2788      3.5855      1.6369
H     16.6739     -3.9787      0.7860
H      1.9666     -1.2643      5.3612
H     -5.4356      6.2563      7.8962
C     -5.0069      2.8701      8.5204
H      0.0347      1.3572      2.4268
C     -5.7995      6.1553     10.7332
C      7.8745      5.2076      2.9614
H      7.0662      6.8173      1.6841
C     11.9120     -6.0614      5.3201
H     16.4621     -3.9977      7.8604
H     16.7919     -2.1467      1.9034
H      2.5556      5.9875     13.4625
C      9.0958     -1.3394      7.4686
C     -7.0811      4.6820      9.3617
C     16.1245     -5.1723      4.9661
C     -8.2273      5.1633     12.8398
C     17.3767     -4.4055      1.4980
H      9.1909     -4.5835      5.6168
H      8.1476      7.5284      2.6326
H      3.7896      1.1585     10.7797
H     -1.3998      1.5782      1.6075
C     -0.1024      3.2348      8.4476
H     19.3486     -2.6254      1.2835
C      0.2165      8.9040     12.1577
C      1.8803      2.1754      8.1546
H     -2.2996      6.7054     10.6992
C     -0.5865      6.0281     14.5184
H     -7.1328      6.9138     11.5811
H     18.8678     -4.1279     -0.4507
C     -3.0049      7.4082     12.6001
O     15.1520     -2.6093      0.5664
C     -6.0559      8.3457      7.8557
C     16.7843     -4.5002      6.9887
C      3.3516      1.3231      9.7097
C      2.5357      1.0700      4.5181
H     -2.5711     10.5944     15.6790
H     -3.7748     11.3450     15.0668
H      5.9611     -0.1833      6.6994
H      2.9994      6.2302      9.2982
C      4.0244      3.5289      3.2316
C     -2.2756      8.1123     13.7317
C     -1.8343      7.0418     11.5407
C      5.1598      2.1008      5.1680
H     17.2681     -0.3628      3.5110
C      1.8254     -0.3339      8.5968
C      4.2752     -1.8134      8.1813
C     10.8626     -7.9542      4.0630
C     16.7789     -3.3023      6.0863
C      2.6159      3.6675      2.5378
C     -7.6064      7.1423      9.5653
H      1.2563     -1.0460      9.2648
H     14.9516     -5.4172     -0.0888
H      8.6235      3.9055      3.6608
H      1.2449      3.1368     12.0125
O      5.7672      6.5862      6.4758
C     13.5395     -4.6567      4.3761
H      4.1406     -2.3567      7.1949
C     10.0931     -4.3036      3.6587
C     10.5717     -5.5982      3.1549
H      8.3386     -2.7177      8.5673
H      8.1686      2.2974      1.9087
C     -2.4643      8.9083      8.0798
H      2.3138      3.6396      4.9801
H     -9.6331      4.3870     13.6686
H      0.3088      3.6183      9.3162
C      2.8570      1.1201      2.0162
C     12.3995     -4.4350      1.7827
O     -8.7121      4.3141     13.6095
O     -5.4378      3.6099     10.6290
C     -0.2734      2.8671      1.6581
C      0.1357      4.1128      4.1064
C     -6.2199     10.7987      7.4579
H     16.4970     -2.1510      5.8956
H     -0.7049     10.0157      4.2258
H     -0.6764      7.9939     10.1937
O      0.4702     10.0025      5.9632
C      5.6426     -1.8617      8.2619
C      0.7418      7.7373      6.7507
C     14.4103     -5.5709      0.9023
H     15.3328     -4.5283      2.7303
C     13.5260     -5.0008      2.9434
H      7.9577      0.0945      8.2315
C      2.4076     -0.1212      3.7876
C      0.5952      2.5417      7.5960
C     10.0085     -1.9590      6.5674
C     10.8354     -9.6922      5.9612
C     17.8561     -0.8291      4.3488
C      3.0361      3.6504     10.3793
C      0.7693      2.0534      1.9908
C     -1.4934      7.4382     14.6455
C      3.3333     -0.8762      8.9327
N      2.4806     -1.3129      4.4265
C      3.5328      1.2690      0.6611
O     17.0581     -6.6047      2.4357
C     -3.4169      6.2331     13.2020
H     -6.8411      9.7552      6.0844
C     10.0910     -8.5004      2.9451
C     -2.9736      8.6122      9.3962
H     -4.8862      3.4905      7.5544
H      2.1730      1.3913      6.9616
H     -5.2213      9.0719      6.3819
C     -2.7750      9.4668     13.7987
H     -8.2852      6.6256      8.9783
H      1.3304      7.1447      9.5438
H     11.8346     -3.6294      1.8470
H      1.4442      9.8038     10.4141
H      3.0950      0.3069      0.3139
H     -1.1980      3.4614      7.8610
C     14.8747     -5.5283      2.4697
H      3.3445      2.0203      0.2702
C      1.0908      9.5766     11.4781
H     -4.9806      5.2176     10.7621
H      2.2540     -2.3057      3.9675
C      4.3954      8.3101      4.0498
C      7.5420      6.6904      2.6343
C     20.1824     -3.2213      1.0812
C     18.5954     -5.1433      1.3074
C      4.1409      6.0817      6.3463
C      2.0151      5.0026      2.4567
C     -6.7212      5.3827     12.8280
C      5.7153      7.5791      4.0026
C     -4.5851      6.1111     13.4428
H      1.5458     10.3053     12.0797
C      4.3069      5.0369      7.4344
C      1.7856      5.1582     13.6029
C      6.3915      6.9726      5.1907
H      2.0352      2.0297      4.2934
H     10.2505     -7.7093      2.1224
C     -5.6327      5.0420     13.5726
H     -0.9541      3.9087      3.5965
O      7.5209      7.3106      5.3691
H     -4.7307      9.1362     11.5310
H     20.9316     -3.1566      1.7995
H      0.4024      3.0897      3.5634
H      2.7206      3.8499     12.3484
H      4.6391      5.5825      4.4568
C     -0.4976      7.8247     11.4201
H     -6.6054      5.2408      7.5368
C     15.7825     -6.5966      2.8379
C     11.0008     -8.3318      5.5439
C     13.4505     -5.8241      5.3730
H     -7.6743      9.1111      8.8484
C      1.5670      5.8450      4.8237
H      2.1746     -0.4784      7.3438
H      2.0115     -1.0915      2.1046
H     12.7918     -2.5674      2.7246
H     -2.7792      8.4742     10.3558
C     -4.9893      7.2914      7.9661
C      3.9979      0.4795      8.8159
C      5.9485      7.3972      2.6948
C      9.7783     -2.3985      5.2140
C     -0.3046      6.4406     15.9001
C     11.4931     -6.4577      3.8431
H      9.8181     -0.5504      7.9434
H      2.2599      2.9336     13.7400
H     -8.7486      5.0395     11.7737
H     10.4082    -10.0596      6.7797
C      1.9274      1.0483      9.1482
C      0.6819      5.4397      3.6181
C      5.2773      3.3524      2.5834
H      1.4056      4.7797      7.7907
H     17.9062     -4.8814      7.1800
C     -5.9537      3.6406      9.4398
H     -6.2438     11.0438      6.3371
C      2.2277      7.0554      9.0151
C     11.3094     -7.1908      6.2116
C      2.3406     -0.1449      2.4390
C      1.3390      4.9421      6.0431
C      1.9368      7.1736      7.4442
C      1.8728      3.8399     13.0365
H     -1.1486      5.0793     14.1974
H      3.7632      1.3446      2.6294
H     -3.3572      9.5435      9.4921
H      4.5229      1.5406      1.0918
H     -4.2628      7.6051      7.2728
H     -4.1329      3.5770      9.0076
H     10.3641     -1.9772      4.2703
H      6.4305      0.6562      4.0253
C     -0.2092      9.3346      5.1970
C     -4.1831      7.4978      9.3048
H      9.1110     -4.1250      3.1706
C      7.9268     -1.9214      8.1400
H      9.5455     -9.4038      2.9617
H      8.7113     -2.4781      4.7739
C     -0.2506      7.8100      7.5976
C      0.6557      3.7388      5.4374
O      8.1195      4.5283      4.1654
C     -1.5603      8.6010      5.6365
C      5.9824      0.7097      6.9177
C      4.9946      1.4757      6.2709
C      2.6667      1.3039      6.0703
H      6.4682      1.5028      6.4909
H      4.6062      2.9633      9.3446
H      7.8929     -0.4156      9.8251
H      0.0033     10.6881      6.4548
H     17.3378     -0.7170      5.2429
H     -0.1199      7.6575      8.6952
C      1.4164      5.5872      7.1244
H      0.0168      3.8711      1.4999
C      3.7318      5.4591      5.0528
C      3.7148      2.8689      9.2715
H     20.6177     -2.7062      0.3005
H      0.1335      6.2799     12.4119
C     -4.7290      7.0576     10.6350
H      3.8145      3.0797     11.1812
H     -1.4827      6.1940     12.0985
C      4.1919      3.1799      4.5069
C     17.3533     -3.3234      4.8527
C      6.0882     -0.8101      9.1177
C     -6.1971      9.4889      6.8603
C     -7.3306      4.5593      7.9105
C      5.4229      0.4885      8.7185
H     12.0390     -7.4406      6.8462
H     -3.5109      9.4842     13.1813
H      6.1611     -1.2485     10.1803
H     -2.6300      5.4330     13.3759
C     14.1714     -2.8839      1.2454
H      3.5661      4.7427     10.1236
H     10.8526     -3.6610      3.2240
265

C     19.5744     -4.6701      0.5077
N     -2.9658     10.5269     14.9231
C      3.7195      1.6091      7.0535
C      2.0779      2.3220      2.3269
C      7.7596      4.3553      1.9225
H      9.8960     -6.6266      2.4950
C      7.6348      2.9029      2.4211
C      3.2851      3.8951      5.4395
C     16.1942     -5.6527      6.3482
C      6.5927      1.7725      4.1492
C     -6.8633      8.2555      8.9968
C     13.3126     -4.3511      0.7961
N      0.5946      2.6623      6.1833
C      0.7835      6.2266     13.4635
O     -1.5192      2.6403      1.9424
C      3.6630      3.8768      6.9093
H      0.3771      7.1578     11.2713
C     15.7226     -6.5093      4.3829
C     16.6956     -2.7342      2.8155
H      1.0186      1.4074     10.1107
H     10.7568    -10.3711      5.2804
H     17.5475     -7.6141      2.0922
C     16.9044     -4.1062      2.7396
H     -7.5936      7.9269     10.4005
H     -4.3113      1.9988      8.9905
H      1.9054      3.3739     10.2684
H     10.5771     -6.6911      6.6119
H      6.1920      1.3872      9.3913
C      3.1564      2.7567      7.8711
H      7.5561      2.1449      4.5750
O     13.6678     -2.1093      2.4485
C      7.6053     -0.7235      9.0133
C     -6.6903      5.7843      9.6808
H      2.7992      0.0333      6.2241
C      6.4351      2.6729      3.2141
H     -6.7248      3.6908      7.6080
H      3.1486     -1.1515     10.0147
H      3.0445      8.1031      9.1129
C     17.4133     -2.1876      3.8833
C      9.9705     -3.9672      5.0669
O     15.0126     -4.1532      4.3995
C     -1.5248      8.5156      7.0920
C     -4.4192      7.8140     11.8991
C     20.3364     -5.6986     -0.2371
C     -6.3920      6.3940     11.9321
H      5.0520      4.0337      1.7807
H     16.9230     -3.6867      0.9926
H      2.0445     -1.5669      5.4710
H     -5.4608      6.1878      8.0302
C     -5.1013      2.9882      8.4854
H      0.3763      1.1687      2.7205
C     -5.6536      6.1829     10.7076
C      7.8646      5.1615      2.9826
H      7.0102      6.3496      1.4853
C     11.7992     -5.9666      5.4190
H     16.3533     -4.2315      7.9744
H     16.5623     -2.0345      1.9657
H      2.7756      5.5863     13.5231
C      9.2360     -1.1754      7.4851
C     -7.0146      4.5184      9.3777
C     16.0507     -5.2128      4.7858
C     -8.1086      5.1363     12.7929
C     17.3239     -4.4646      1.4647
H      9.0717     -4.5465      5.4234
H      8.1250      7.3148      2.6733
H      3.3682      1.1136     10.8372
H     -1.8231      1.8758      2.2789
C     -0.2112      3.1864      8.4522
H     19.1923     -2.6355      1.0424
C      0.2187      8.8859     12.2222
C      1.8518      2.1694      8.1285
H     -2.5912      6.8002     10.7541
C     -0.6504      6.0926     14.5401
H     -7.3181      6.8767     11.5486
H     19.3239     -4.0233     -0.3228
C     -2.9771      7.3914     12.6990
O     15.1851     -2.5578      0.6239
C     -6.1565      8.3504      7.9693
C     16.8061     -4.4532      6.9450
C      3.3699      1.4236      9.7995
C      2.5629      1.1830      4.4764
H     -3.3778     10.5584     15.9155
H     -3.5807     11.3172     14.7393
H      6.0189     -0.4688      6.7943
H      2.5660      6.1632      9.5348
C      4.0925      3.3976      3.2404
C     -2.4188      8.1336     13.7387
C     -1.9305      7.0753     11.5344
C      5.1639      2.1340      5.0355
H     17.4668     -0.4636      3.2989
C      1.7916     -0.2283      8.5777
C      4.2491     -1.7844      8.0640
C     10.9703     -7.9691      3.9383
C     16.7500     -3.2450      6.0023
C      2.7172      3.7245      2.5199
C     -7.6077      7.0754      9.5513
H      1.3128     -0.7527      9.3573
H     14.9600     -5.6355     -0.0227
H      8.6054      3.5781      4.0815
H      1.0850      3.5883     12.2827
O      5.7223      6.6223      6.3212
C     13.5196     -4.7512      4.4130
H      3.5624     -2.4724      7.6489
C     10.2169     -4.3013      3.5789
C     10.4642     -5.6749      3.0916
H      8.2066     -2.8323      8.6762
H      8.4151      2.3071      1.8325
C     -2.4705      8.9164      7.9508
H      2.2222      3.5389      4.9328
H     -9.6088      4.1380     13.4793
H      0.6135      3.2272      9.2418
C      2.8447      1.1241      2.0728
C     12.3227     -4.4464      1.8893
O     -8.6669      4.2803     13.5879
O     -5.5117      3.6648     10.6120
C     -0.2297      2.8594      1.7503
C      0.1122      4.0476      4.1138
C     -6.2192     10.7504      7.3897
H     16.2863     -2.3582      6.1073
H     -0.4867      9.5827      4.2030
H     -0.7342      7.8616     10.2467
O      0.5584     10.0232      5.9354
C      5.4980     -1.7799      8.3591
C      0.8624      7.7333      6.7308
C     14.5380     -5.4916      0.9127
H     15.5460     -4.5589      2.4116
C     13.4022     -5.1712      2.9636
H      7.7695      0.0859      8.3085
C      2.4092     -0.1243      3.8070
C      0.6133      2.4725      7.6932
C     10.0444     -1.9152      6.5139
C     10.8166     -9.6340      6.0239
C     17.7437     -0.7872      4.2575
C      3.0804      3.7801     10.3262
C      0.7719      1.9922      2.1289
C     -1.6160      7.4275     14.6278
C      3.3198     -0.8637      8.8987
N      2.4485     -1.3716      4.4772
C      3.6133      1.1431      0.6132
O     16.9401     -6.6619      2.4289
C     -3.3705      6.2288     13.1364
H     -7.1844      9.5449      6.3530
C     10.0354     -8.3990      2.8543
C     -3.0294      8.6645      9.3627
H     -5.1145      3.5752      7.5107
H     -4.9334      9.2891      6.6549
C     -2.8551      9.4712     13.9684
H     -8.4082      6.7388      8.7435
H      1.4571      7.7138      9.5897
H     11.6826     -3.5494      2.3581
H      1.4493      9.4671     10.4484
H      3.1519      0.4852      0.0538
H     -0.9415      3.8341      8.0854
C     14.7544     -5.4179      2.3305
H      3.5905      2.3976      0.2724
C      1.1187      9.6462     11.5460
H     -5.1655      5.1430     10.6126
H      2.3105     -2.3523      4.0983
C      4.3927      8.3311      4.0908
C      7.4330      6.6423      2.5765
C     20.1798     -3.2881      1.0419
C     18.5734     -5.1595      1.3388
C      4.1921      6.1824      6.3346
C      2.0831      5.0480      2.3884
C     -6.7232      5.3441     12.8110
C      5.6483      7.5664      4.0397
C     -4.6749      6.1154     13.4201
H      1.8740     10.1507     12.2629
C      4.1776      5.1210      7.4108
C      1.7205      5.1356     13.6480
H     -3.1148      9.7190      7.9294
C      6.3381      7.1129      5.1255
H      2.3177      1.8831      3.7535
H     10.5807     -8.0005      1.8967
C     -5.7101      4.9406     13.5632
H     -0.9531      3.9666      3.6886
O      7.4662      7.3240      5.4107
H     -4.5608      8.9316     11.3589
H     21.1291     -3.2427      1.7211
H      0.4060      2.9702      3.4882
H      2.6709      4.0415     12.3235
H      4.3246      5.4179      4.2979
C     -0.5798      7.8148     11.2482
H     -6.4726      5.1872      7.2903
C     15.6967     -6.6336      2.8773
C     10.9704     -8.3682      5.4712
C     13.5121     -5.7907      5.3527
H     -7.8989      8.7160      8.6562
C      1.4815      5.9428      4.7652
H      1.8908     -0.5579      7.3115
H      1.9618     -0.8667      1.7291
H     12.9556     -2.7702      2.9602
H     -2.2316      8.5274     10.2946
C     -4.9912      7.3623      8.0332
C      4.2862      0.5682      8.7910
C      5.9677      7.4204      2.6546
C      9.7193     -2.6017      5.1604
C     -0.1245      6.3498     15.9567
C     11.4428     -6.3979      3.9413
H     10.0238     -0.7470      8.1844
H      1.7393      2.8341     13.6945
H     -8.3164      4.8099     11.8171
H     10.6758    -10.0013      7.0737
C      1.9411      1.0436      9.1380
C      0.7833      5.3290      3.5392
C      5.3061      3.3174      2.5501
H      1.5905      4.7925      8.0728
H     18.0119     -4.8096      7.0885
C     -6.0316      3.3942      9.5217
H     -6.1059     11.3265      6.4645
C      2.2604      7.2164      8.9335
C     11.4108     -7.0484      6.1742
C      2.3610     -0.1759      2.4440
C      1.3905      5.0529      6.0008
C      1.9890      7.1075      7.5121
C      1.8954      3.8881     13.1369
H     -0.9327      5.1732     14.5418
H      3.7750      1.5959      2.4368
H     -3.4662      9.6371      9.5407
H      4.7271      1.3450      0.8116
H     -3.9814      7.2996      7.4796
H     -4.5404      3.5510      8.9414
H     10.0720     -1.8469      4.5266
H      6.8664      0.5384      4.1091
C     -0.3187      9.3092      5.2425
C     -4.1576      7.6126      9.3084
H      9.3697     -3.9772      3.0487
C      7.9540     -1.7607      8.0289
H      9.5036     -9.4374      2.6830
H      8.6851     -2.4373      5.0721
C     -0.2436      7.8836      7.6155
C      0.7917      3.8632      5.5252
O      8.1792      4.4272      4.1677
C     -1.4868      8.4648      5.6687
C      6.1747      0.7276      6.9101
C      4.9792      1.3673      6.3846
C      2.7372      1.1039      6.0283
H      6.3355      1.8016      6.3042
H      4.8061      3.1920      9.3667
H      7.9775     -0.8196      9.9552
H      0.6146     10.9009      6.3182
H     17.4398     -0.7910      5.1622
H     -0.2147      8.0304      8.7034
C      1.4131      5.5543      7.2243
H      0.1607      3.8329      1.3986
C      3.6957      5.3720      4.9998
C      3.6689      2.8987      9.2759
H     20.8357     -3.0897      0.2292
H      0.2107      6.2215     12.6504
C     -4.5206      7.2285     10.5011
H      3.5675      3.1772     11.2983
H     -1.7342      5.9765     11.6056
C      4.2257      3.2509      4.4982
C     17.3970     -3.3992      4.8469
C      6.1037     -0.7670      9.1255
C     -6.2836      9.4977      6.8541
C     -7.4226      4.5966      7.8946
C      5.6502      0.5282      8.7263
H     12.1234     -7.2744      6.9304
H     -3.7445      9.3903     13.0543
H      5.9053     -0.8120     10.2042
H     -2.5110      5.7207     13.1513
C     14.1618     -2.9934      1.2094
H      3.7371      4.5279     10.5330
H     11.0826     -3.5850      3.5019
