271

C     32.5443     -3.7446     14.0116
C      4.1934      1.4536      7.0333
C      3.0471      3.0797      1.0609
C      7.2651      5.1265      2.7756
H      9.3348     -8.7673      2.0448
C      7.5634      3.6457      2.7097
C     16.0657     -9.0363      5.3621
C     19.4660     -3.0738     10.9612
C     28.7363     -5.8802     19.2527
C      6.0598      2.0056      4.0823
C     19.0284     -4.2116     10.0891
C     26.8630     -4.2579     13.5378
N     -0.2764      3.0037      6.4265
C      1.1553      6.0105      0.1636
O     11.3785    -11.3036      2.3028
C     16.0562     -9.0022      7.0510
H      0.9209      6.3951     -1.0439
C     28.6793     -6.8356     17.1852
C     29.3815     -2.3633     16.6141
H      1.5560      0.1049      9.6263
H     10.7162    -10.7845      4.7154
H      6.3388      5.2016      3.1045
H     20.2005     -1.3136     10.1278
C     29.6322     -3.8208     16.3132
H     28.0943     -2.6188     11.9672
H     20.7041     -3.1890     11.0936
H      8.0426      3.4989      3.6151
H     25.2838     -5.7166     10.6157
H     11.9001     -8.2959      6.3600
C      3.0169      2.3619      7.5029
H     -3.8833      8.8119      1.8577
H      7.0190      2.0624      4.3938
O     27.8701     -2.5804     14.8765
C      8.7789      0.4788      8.1816
C     19.2180     -6.8444     10.1347
H      2.7110      5.8860      8.6083
C      6.1463      2.8469      2.8489
H     18.4958     -2.9921     11.5312
H      5.3620     -1.6931      6.3997
H     16.9227     -4.2310     10.7518
C     30.2967     -2.1838     17.6354
C     10.1086     -4.7038      4.9793
O      1.8871      8.3940      4.6762
C     -1.7719      7.4711      7.0040
C     21.3416     -4.7789     12.2712
C     33.1308     -4.7960     13.1321
C      6.1430      7.5523     -0.4057
H      5.0122      3.8077      1.3621
H     30.5631     -2.8027     14.8593
H      0.7866      0.0532      3.6412
H     -4.6647      5.0615      9.6273
H     28.5379     -1.7785     17.2664
C     19.3693     -5.6344     10.9116
C      8.0500      6.1287      3.7710
H     33.1667     -1.9033     13.4657
C     11.8815     -6.6042      4.8342
H     27.7587     -4.7962     20.7023
H     19.0191     -2.6859      9.2710
H     30.0941     -6.6047     14.4126
C     10.3626     -1.4398      7.1227
C     18.2661     -6.7086      9.0597
C     28.7707     -5.5628     17.7930
C      4.7805      5.6205      0.1112
C     30.5063     -3.8050     15.2265
H      9.4911     -5.4943      5.1498
H      8.2739      8.3963      3.4679
H      4.3700      1.4414     10.6008
H      7.1120      0.0250      9.6270
C     -0.0746      3.0165      8.9310
C     26.1195     -4.5377     12.0444
C      1.5630      1.5806      7.0506
C     -0.3833      6.3659      1.2409
H      5.0922      7.9078     -0.4513
H      9.8409     -9.1249      5.4317
H      5.7415      4.4665      6.1151
H     18.7273     -0.8588     10.4514
C     22.6983     -5.2047     12.7081
O     27.6672     -2.0439     12.6500
C     19.4351     -4.3340      8.5777
C     28.6937     -4.7743     20.1927
C      3.4482      1.3353      9.7357
C      3.3644      1.6479      4.6366
H     -2.1784     10.0866      1.9351
H      4.0095      6.3472     -0.0023
C      3.9648      3.5528      3.2984
H      8.4512     -3.7677      5.8475
C     -2.3275      8.5576      0.6206
C     23.5858     -5.7044     11.6921
H      0.6421     10.0076      5.8118
C      5.3075      2.6867      5.1401
H     30.8755     -0.5536     16.5419
H      7.9623      3.3340      1.5556
H      9.1465      1.6039      8.2707
C      2.9766     -0.7598      8.4052
C      5.5203     -1.0814      7.1950
C     10.9311     -7.9645      3.0572
C     29.1353     -3.2946     19.5509
C      2.6550      3.6218      2.3764
C     17.5793     -3.8678      9.9090
H      2.2943     -0.9683      7.7224
H     28.5820     -5.3025     13.1881
H     10.6781     -7.9505      1.0790
H     25.8812     -3.9044     11.2207
H      1.9058      3.1716     -0.5972
O      5.1013      6.9587      6.5277
C      0.4762      7.8985      4.4629
H     29.6366     -2.5769     20.2813
C     10.6907     -4.5342      3.5343
C     10.8720     -5.6486      2.8301
H     18.8339     -3.5767      8.2335
C     -3.0622      7.1813      7.4881
H      1.3367      2.3689      5.0574
H     28.3546     -5.0951     11.8847
H      6.4825      2.2547      1.9834
H     -0.7805      3.8373      8.5196
C      3.7863      1.6051      1.1896
C      0.0626      8.5069      1.7870
C     11.2871     -9.8581      1.2792
C     -0.1795      3.7191      4.0061
C      7.9370     -1.2869      6.7668
H      1.5414      0.4680      4.8998
H     -3.8593      7.2527      6.5240
H     28.4327     -2.6248     19.0060
H      1.6636      6.8077      0.7610
O      0.2886      9.2428      6.4120
C      6.8453     -0.6808      7.5003
C      0.4717      6.7662      6.6944
C     28.0939     -4.9887     14.0704
H     28.8294     -4.6090     15.9887
C      0.6908      7.6011      2.8661
H      9.4633      0.3510      8.9302
C      2.6022      1.1299      3.4412
C      0.1749      2.4879      7.3915
C     10.4143     -2.9333      6.9656
C     10.3770     -9.8058      4.7843
C     31.2418     -1.1917     17.3659
C      3.3527      3.6972      9.5592
C     12.6322     -9.4353      0.9954
C     -1.2139      7.7386      1.6019
C      4.6561     -0.8298      8.2291
N      1.7824      0.2984      3.9837
H      3.3765     -0.3921      0.3779
C      3.1777      0.7290     -0.0158
O     29.9124     -6.5459     15.3894
C      9.3705      6.5624      0.7702
H     31.2368     -3.6731     19.4878
H      1.5154      0.8595      7.8471
C     10.4650     -8.5955      1.8649
C     -2.9338      7.1970      9.0975
H      1.6593      1.1226      6.1558
H      7.8682      5.0187      0.4474
H     20.8084     -3.2336      7.5082
C     -2.8606      9.4569      1.6004
H     17.0973     -4.2716      9.0404
H      1.3125      6.9382      8.9484
H     10.4072     -7.3371      6.1379
H     -0.5190      9.3505      4.1274
H     27.3168     -5.3812     10.4957
H      3.8225      1.0704     -0.9122
H      0.8829      3.2330      9.1349
C     27.9238     -5.4239     15.4239
H     17.2180     -6.0297      8.8974
C     27.5729     -4.7754     11.2994
C     19.2548     -1.9341     10.1285
H      3.3906      3.4067     10.7092
H     29.8094     -1.9221     15.6283
C      4.2855      8.2834      4.7031
C      7.8063      7.3835      3.3075
C     32.9471     -2.3833     14.4589
C     31.8381     -4.3888     15.2275
C      4.1017      6.1656      6.2743
C      1.9819      4.7752      2.3115
C      6.0570      6.1606      0.4130
C      5.5347      7.2542      4.3014
C      7.8947      6.9495      1.2905
C     17.1704     -8.0385      7.3653
C      1.7941      4.9933      0.8978
H      8.0289      7.1664      5.1985
C      6.0104      7.1769      5.5130
H      9.3899      5.5369      0.6890
H     13.3872    -10.3057      0.7464
C      7.2849      5.6843      1.1620
H     -0.0284      2.8162      3.4270
H     -2.1514      6.4657      9.2079
O      7.3137      7.6367      5.9255
H     21.4754     -3.8939     11.7485
H      1.8942      2.5308      2.6664
H     -0.2909      9.4422      2.3046
H      4.6746      5.1166     -0.6789
H      4.8617      5.6407      4.4286
C     24.9462     -5.4605     11.5821
H     -4.9478      6.1270      8.1773
C     28.5714     -6.8385     15.7217
H      0.6629      5.2005      8.6376
C     11.3565     -8.8294      4.4277
C     13.3327     -6.2759      5.0547
H     17.5388     -2.8419      9.8708
H      3.2999     -0.4637      5.4890
C     14.2949     -7.3450      4.4921
H      2.3716      0.3820      1.9230
H     -0.3486      6.4361      8.4143
C     -5.2197      5.9700      9.3832
C      4.6575      0.5821      8.5907
O      6.2633      3.9448      5.3120
C      6.4574      7.6326      3.1734
C      9.5920     -3.5322      5.7138
C     -0.0774      6.3663      2.5615
C     11.5954     -6.7425      3.3978
H     29.1205     -4.9307     21.3129
H     27.9558     -3.8656     11.0253
H     10.0250    -10.4618      3.8744
C      2.5633      0.0152      9.4122
C      0.6192      5.0486      3.1394
C      4.9363      3.7074      2.4825
H      0.7917      4.1929      7.5459
H     21.5267     -4.9378      7.9046
H     10.8744     -1.2173      5.9732
H      7.7104     -2.1984      6.3981
C      1.6952      6.0798      8.5464
C     11.2820     -7.8078      5.5406
C      3.2356      0.8497      2.1772
C     14.6096     -8.5563      5.4061
C      1.7207      6.2029      7.0457
C      2.3426      3.9889      0.0955
H     -1.1485      5.3613      0.9629
H      4.8199      1.7277      1.1355
H     10.8088     -1.8382      8.0867
H      2.1308      0.9066      0.0457
H     11.5547    -10.8280      2.9808
H     10.0370     -3.6037      7.7804
H      5.3610      0.9946      3.8518
C     -0.4235      8.6869      5.0715
C     -4.2776      6.8462      9.9168
H     32.1310     -1.9152     15.0968
C      9.0484     -0.6341      7.2145
H      9.9453      6.5568      1.8777
H      9.1405     -2.7420      4.8866
H      6.1108      1.8332      9.6866
C     -0.5335      6.9901      7.5920
C      0.6214      3.2352      5.1711
O      8.8951      5.9231      4.4708
C     -1.5074      7.6550      5.5118
C      6.2395      2.1156      7.6757
C      5.3823      2.3182      6.4989
C      3.7979      0.7497      5.6794
H     18.9947     -5.3155      8.0794
H     18.8024     -8.4806      8.8472
H     21.3195     -3.3070      9.0245
H     11.3183     -3.5834      7.1354
C      1.6376      4.6191      6.9224
H     10.6319    -10.3085      0.4937
C      3.8367      5.4196      5.0830
C      3.2648      2.5205      8.9919
H     33.9085     -2.2132     14.9037
C     20.8877     -5.5915     10.9635
H     22.9122     -5.9903     10.9265
H      7.3514      2.3953      7.8156
C      3.9580      2.9399      4.5685
C     30.3746     -3.5192     18.7645
C      7.2354      0.1715      8.6699
C     20.9184     -4.0064      8.2807
C     18.3988     -7.8329      8.0765
C      6.0524      1.3025      8.7914
H     -0.1376      2.0185      9.5121
H     -2.4976      8.2810      9.4879
H     12.9566     -8.8185      1.7953
H     31.5195     -3.2782     13.3607
H     12.8886     -8.9944     -0.0424
C     27.4383     -2.7923     13.7823
H      2.7288      4.4537      9.2036
H     10.6061     -3.8157      2.7175
