261

C     19.4721      8.6791     13.6694
N     -3.1746      9.8961      1.7497
C      4.3768      1.7572      7.0825
C      2.4779      2.7079      2.1330
C      7.6870      4.7976      2.0606
H     -2.7714      6.6610      2.0283
C      8.0543      3.3014      2.7747
C      3.4866      3.9917      5.4418
C     16.0835      7.1337     19.4288
C      6.4999      1.5846      4.1102
C     -7.1574      8.4772      9.1552
C     13.6355      8.8327     13.8848
N      0.6342      2.4834      6.1444
C      0.7037      6.4847      0.7502
O     -1.2738      2.2993      1.1452
C      3.1158      4.1250      7.0149
H     13.2065      6.8782     11.1478
C     15.6784      6.2485     17.2630
C     16.6430     10.4312     16.2203
H     -2.7656      2.6591      4.6447
H     17.2687      6.9292     15.5243
C     16.8937      8.9461     16.1122
H     -8.2049      7.1748     10.8259
H     -7.6376      9.3069      9.6971
H     -1.9275      5.1723      7.0461
H     -6.6847     14.5617      9.0967
C      3.1670      2.6461      7.5178
H      7.0824      0.9921      4.6805
O     14.2066     10.5759     15.2943
C     -4.7180     12.5538      8.4741
C      6.0290      5.9111      9.8430
H      3.7331     -0.2287      6.0793
H      3.8140      5.4148      8.4364
C      6.8937      2.7984      3.1716
H     -4.2057     12.4461      9.3836
H     -8.6712     12.6662      9.8832
H      2.5570      5.9888      9.1721
C     16.7583     10.8893     17.5543
C     -3.2195      8.3270      4.8833
O      1.9880      8.7524      4.9095
C     -1.7840      8.0092      7.1817
C      8.8947      7.7377     11.7401
C     20.4144      7.6476     13.0252
C      6.4536      6.8031     -0.7063
H      5.5274      4.2073      2.0792
H     16.7976      9.5569     14.2003
H      2.2207     -0.7006      5.7061
H     -5.6398      6.6504      7.8318
C      7.9336      2.7729      8.6697
H      1.3037      1.5363      1.0048
C      7.1931      6.3334     10.9179
C      7.9090      5.5930      3.1621
H      7.7316      7.2592      1.8926
C     -1.2122      6.5980      5.2255
H     16.3770      8.4309     21.3225
H     17.6259     10.7374     15.7207
H      2.6884      5.8486      0.6692
C     -3.1412     11.5132      7.1038
C      6.2007      4.8391      9.1608
C     15.7922      7.5949     17.9687
C      4.6086      5.5614     -0.0631
C     17.4872      8.7986     14.8679
H     -4.2630      8.1280      5.5094
H      7.8924      7.4933      3.8210
H     18.7745     12.3229     16.6143
C     -0.3529      3.3580      8.2300
H     19.3596      9.6903     15.3611
C     12.6773      8.7925     12.6692
C      1.9562      2.0698      8.1359
H     10.6318      7.0647     10.7895
C     -0.4714      6.1778      1.5512
H      5.6636      7.4605     -0.7761
H     18.6202      9.1271     13.0236
C     10.1330      7.1323     12.6724
O     15.2042     10.7914     13.0662
C     -5.9073      8.5362      8.4860
C     16.5447      8.2779     20.3324
C     -9.1312     14.6390      9.6344
C      2.5878      1.2144      4.9589
H     -2.5990     10.1794      2.5935
H     -6.5910     13.0647      6.3618
H    -10.9397     17.0632      9.4452
C      4.5495      3.2989      3.3487
H     -3.6884      8.9486      7.6656
C     -2.0633      8.1661      0.6345
C     11.2003      6.7346     11.6524
H     -1.9658     11.6938      5.1834
C      5.6264      2.3147      5.0458
H     17.4325     13.4901     17.2605
C    -10.5328     12.5344      8.7742
C     -8.1507     11.3127      8.2879
C     -2.1877      4.8710      3.7985
C     16.2561      9.4988     19.4484
C      3.0189      3.8299      2.6955
C     -7.8489      7.1410      9.7213
H    -11.0148     11.6175      9.1307
H     14.9169      8.1009     12.9868
H      8.4201      6.1451      5.0208
H      0.4422      4.3083     -0.5137
O      5.6133      6.7129      6.4755
C      0.4443      8.1800      4.5575
C     -3.1157      8.1996      3.4351
C     -2.2716      7.1849      2.6327
H     -5.2552      9.3084      8.9853
H      8.5504      3.6734      3.7897
C     -2.7323      8.8168      8.0319
H      2.6007      3.4783      4.9987
H     13.0018     10.4526     10.8745
H      4.0507      3.8132      1.4507
H     -0.1005      2.4439      8.9033
C      3.2709      1.3966      2.1304
C     -0.0793      8.5915      2.2104
O      4.1015      3.9643      0.3500
O      7.7593      4.0749     10.6104
C     -0.3284      2.6934      1.7177
C      0.3738      3.4229      4.0441
C     -5.7436     10.7600      7.4010
H     -2.3185      9.7162      8.3315
H     15.1644      9.8367     19.1508
H     -0.9905      9.6006      4.0777
H     12.3282      8.0526     10.5494
O     -0.0057      9.8533      6.1548
C     -6.8187     11.4615      8.2704
C      0.6118      7.1920      6.9237
C     14.3658      7.6582     13.8270
H     15.7147      8.3332     15.4024
C      0.5780      7.7095      3.1818
H     -4.3090     13.4710      7.9980
C      2.6301      0.0425      3.9255
C      0.6750      2.4556      7.4632
C     -2.4055     10.8452      5.9095
C     -2.4069      3.1437      5.4527
C     17.8068     12.2407     17.3607
C    -10.1721     16.7472      9.9560
C      1.1876      2.6127      1.4078
C     -1.1548      7.6506      1.8195
C     -9.0512     12.3431      8.7987
N      2.2104     -0.9974      4.7013
C      3.7414      1.3971      0.7217
O     16.8756      6.0452     15.2890
C      9.3553      6.1506      0.4734
H     18.3108      9.8600     18.5845
C     -2.5650      3.9290      2.7277
C     -2.6859      8.1394      9.3172
H      2.1784      0.9358      6.8109
H      8.4622      3.3777     10.7911
C     -3.1532      9.0961      0.7712
H     -8.7890      6.8871      9.1835
H      1.7704      7.6158      9.1101
H     -0.4672      9.5621      2.6410
H     14.2022      9.5352     12.1810
H      3.2735      2.0072     -0.0726
H     -1.1948      3.4181      7.7823
C     14.7661      7.5540     15.3569
H      4.8261      1.8430      0.9497
C     13.2424      9.9922     11.8088
H      1.4953     -1.3192      4.1673
C      4.0425      8.3047      4.5434
C      7.6031      6.9978      2.8403
C     19.9690      9.7298     14.4696
C     18.4749      7.8574     14.6118
C      4.3865      5.9933      6.4694
C      2.0641      4.9664      2.4623
C      6.1016      5.9996      0.3849
C      5.4310      7.5704      4.3662
C      8.1812      6.5287      0.5856
H     12.9250     10.8228     12.4289
C      4.2171      4.8681      7.4972
C      1.7731      5.3541      1.0017
H     -2.1262      7.0274      7.2593
C      6.2543      6.8971      5.4600
H      1.5603      1.3059      5.5316
H      0.9173      3.5211      0.7878
C      7.1754      5.4094      0.8952
H     -0.6560      3.1404      4.3807
O      7.4772      7.1434      5.6253
H      8.9814      8.7564     11.3458
H     20.7429      9.5951     14.9080
H      1.6269      5.4041     -0.6614
H      8.0332      2.3218      9.6676
H      4.5549      4.9471      4.0303
C     12.5864      7.7213     11.5439
H      6.5706      4.9027      7.0826
C     15.5155      6.2884     15.7602
H     -0.3552      8.1957      8.5639
C     -2.0862      4.4597      5.1326
C      0.3013      6.6919      5.4361
H      2.6623      2.3929      4.5805
C      1.2720      5.7438      4.7976
H    -11.0095     12.5755      7.7790
H      2.4365     -0.6482      2.0102
H     15.5669     10.1825     16.1565
C     -5.0207      7.3355      8.3932
C     -8.5279     13.7382      8.5217
C      6.0910      7.3770      3.0406
C     -3.4080     10.0670      5.0226
C     -0.0667      5.9687      3.0448
C     -1.5710      6.1868      3.7439
H      2.4764      4.0432     -0.5940
H      4.5791      5.1901     -1.0185
H     -1.3663      2.7802      5.7388
C    -10.6359     14.1358      9.3868
H     -1.4908     10.4681      6.2653
C      0.9239      4.9219      3.4500
C      5.8102      3.2149      2.4654
H      0.2528      4.2241      8.2168
H     -6.6324      9.1788      6.3801
C      7.2257      3.7845      9.4346
H     -2.5599     12.2554      7.6347
H     -5.9684     10.5716      6.4399
C      1.7288      6.5210      8.8266
C     -1.4678      5.2989      6.0715
C      2.6512      0.1164      2.6276
C      1.3061      4.8293      5.7581
C      2.0066      6.4722      7.4102
C      1.4745      4.4447     -0.1271
H     -1.3492      5.1172      1.3940
H      3.9489      1.9837      2.6566
H     -2.1878      8.3200     10.2865
H      3.7548      0.4427      0.3551
H     -4.2534      7.8182      7.4890
H      8.9986      3.3117      8.4091
H      5.7419      1.1766      3.5293
C     -0.6712      8.9457      4.8402
C     -3.8411      7.0787      9.3181
H      3.9117      6.2789      0.1845
H     -3.8604      8.6863      2.8378
C     -4.3948     11.3399      7.5711
H     -3.0661      2.9249      3.0235
H     -3.5926     10.0934      3.7866
C     -0.4128      7.7969      7.6610
C      0.5453      3.4888      5.4600
O      8.3673      5.3645      4.3907
C     -1.8093      8.0442      5.5042
C     -6.3908     14.0984      7.1342
C      5.6885      1.9957      6.4326
C      3.3156      0.6858      6.1637
H     -5.3432     14.0639      6.7066
H     -8.2010     16.5417      8.8859
H      0.9875     10.0945      6.0508
H     18.3965     12.1961     18.2620
C      1.7788      4.8265      7.1805
C      3.9872      5.3152      4.9385
C     -9.2241     15.8621      9.0218
H     20.0970     10.5554     13.8814
H      0.4915      6.3130     -0.3344
C      8.4571      6.9359     10.6985
H    -10.3682     16.2403     10.9248
H     11.5346      5.6011     11.8050
C      4.4280      2.9916      4.6692
C     17.2671      9.5578     18.4378
C     -6.0529     12.4852      8.8909
C     -5.7460      9.2696      7.1150
C      5.7371      4.5180      7.8080
C     -6.9123     13.8173      8.5992
H     -0.1682      4.8740      6.0005
H     -3.7474      9.7094     -0.2165
H      9.4917      5.1972      1.1552
C     14.4392     10.2791     13.9751
H     -9.6928     17.6050     10.4066
H     -2.3993      8.9727      3.4624
