270

C     19.5275      9.0069     13.8669
C      4.1097      1.4410      6.9478
C      3.1036      3.0491      1.0566
C      7.3786      5.3018      2.5741
C      7.3952      3.6857      2.3304
C      2.9690      4.1118      5.5418
C      6.4887      9.6031     11.2530
C     15.8783      7.0798     19.6010
C      6.2311      2.2142      3.9996
C      6.0571      8.6211     10.1563
C     13.6766      8.5819     13.5523
N     -0.3138      2.7571      6.4134
C      0.7095      5.7567      0.3166
O     -1.4654      1.8848      2.5145
C      3.0568      3.8697      6.9254
H      0.2293      6.0069     -0.5987
C     15.5938      6.3143     17.4258
C     16.0707     10.3671     16.8665
H      1.4467      0.2204      9.2075
H     -2.2914      2.3135      5.1965
H      6.3471      5.3901      3.0381
H      7.4825     10.2576      9.5829
C     16.6923      9.2151     16.2462
H     15.3484     10.7878     12.1631
H      7.3735      9.7748     11.6602
H      8.2050      3.5317      3.1128
H     12.8251      7.3651     10.3740
H     -1.3119      4.6669      6.7968
C      2.9712      2.4066      7.3125
H      9.3186     -2.2449      0.9432
H      7.2323      2.2850      4.3095
O     14.6117     10.1149     14.8963
C      8.7154      0.3779      8.5006
C      6.1691      6.3857      9.9387
H     15.5132     -6.8288      9.2359
C      6.1006      2.8008      2.7882
H      6.4690      5.3838      7.5697
H      5.7670      9.9829     12.0358
H      5.9215     -2.1776      7.1289
H      4.0448      8.7711     10.9798
C     17.2434     10.6620     17.8661
C     10.0765     -4.7812      5.0466
O     14.7784     -4.3364      4.8588
C     11.3766     -5.5236      7.0076
C      8.6035      8.3902     12.0254
C     20.3500      8.1468     13.0998
C      6.3205      7.2060     -0.3365
H      5.1867      4.0847      1.4007
H     16.9873      9.8239     14.4193
H      1.2119     -0.7677      3.5575
H      7.6535     -8.0170      8.9553
H     15.0995     10.3571     17.2231
C      6.4798      7.3013     10.9322
C      8.2482      5.9190      3.4194
H     20.9318     10.6074     13.3285
C     -1.0554      6.4034      4.9751
H     14.8895      8.7153     20.7609
H      5.4682     11.0186     10.0939
C     10.3773     -1.4662      7.3824
C      5.1049      6.1378      8.9334
C     15.8227      7.6413     17.9882
C      4.7576      5.4269      0.2917
C     17.5427      9.1892     15.0776
H      9.1192     -5.3580      4.7743
H      8.4424      8.4001      2.5026
H      4.2345      1.3191     10.3218
H      6.7675     -0.5631      9.1481
H     19.0519     11.3211     18.2627
C     -0.0541      2.9656      8.4764
C     13.2551      8.3808     12.1311
C      1.6480      1.7880      7.2642
C     12.5425     -6.6012      1.2561
H      5.4745      8.0231     -0.4332
H     -2.4933      3.7541      5.9842
H      5.5164      4.5308      5.7866
H      7.1983     11.2804     11.1746
C      9.9452      7.7252     12.7141
O     14.6021     10.9375     12.7945
C      6.3060      8.8819      8.6314
C     15.9794      8.4536     20.3900
C      3.6808      1.0651      9.3920
C      3.6345      1.4143      4.6381
H     11.0461     -2.9140      1.8591
H      4.2454      5.7616     -0.5790
C      3.9998      3.5707      3.0942
H      8.6464     -3.5023      5.8672
C     10.4709     -4.2869      0.6619
C     10.9719      7.5377     11.5793
H     12.7217     -2.6855      6.2149
C      5.3445      2.9025      5.0744
H     18.2607     12.5007     16.8100
H      7.1926      3.4755      1.2832
C      2.8113     -0.7530      8.0818
C      5.5778     -1.3796      7.5225
C     -2.0250      4.9798      3.3162
C     16.1142      9.6980     19.5247
C      2.5752      3.6802      2.3685
C      4.4012      9.1150     10.0638
H      2.1661     -1.3184      7.5833
H     15.8475      8.2729     13.6897
H     -2.2722      4.5581      1.2539
H     12.6834      9.4530     11.9509
H      2.7383      3.8467     -1.2378
O      5.2459      7.1523      6.8217
C     13.6380     -5.0348      4.5562
H     16.2510     10.3693     20.4137
C     10.3679     -4.5129      3.3855
C     10.9143     -5.5802      2.8013
H      5.6356      9.6148      8.0266
C     10.1411     -5.6027      7.6991
H      0.5621      2.3064      4.5959
H     15.5164      7.6352     11.6181
H      5.9056      2.2449      1.8971
H     -0.2110      4.0370      8.5948
C      3.7364      1.5916      1.0140
C     12.8758     -4.5387      2.0485
C     -1.4084      3.1308      1.6806
C     -0.2063      3.9783      3.9043
C      7.8024     -1.3129      7.0391
H      1.1212      0.7857      5.0114
H      9.2226     -5.8261      7.2085
H     15.1251     10.0884     19.5622
H     15.1824      6.7617     13.3988
O     13.1378     -3.4709      6.0322
C      6.7465     -0.5645      7.3609
C     13.7177     -6.1800      6.5165
C     14.8174      7.6018     13.8823
H     15.5838      8.5771     15.8017
C     13.6709     -5.3082      2.9617
H      9.3838     -0.1429      9.2631
C      2.8416      0.9039      3.5872
C      0.5379      2.5238      7.2859
C     10.3666     -3.0338      7.0794
C     -2.5455      3.2476      5.0313
C     18.2590     11.5841     17.4933
C      3.3665      3.6947      9.4785
C     -0.0337      3.4616      1.2137
C     11.6979     -5.2240      1.5649
C      4.4240     -0.7383      8.1103
N      1.5831      0.3949      3.9576
C      3.0435      0.4775     -0.3667
O     17.1068      6.1469     15.3519
C      9.5678      6.5473      0.7295
H     18.0331      9.0765     19.4039
H      1.6327      1.0101      8.1202
C     -2.4792      4.0662      2.2065
C      9.8130     -5.6493      9.0493
H      1.2683      1.1581      6.0943
H      8.1512      5.0700      0.6264
H      8.4712      9.2853      7.5392
C     10.0494     -2.9937      1.1636
H      4.0532      8.3611      9.2022
H     13.6782     -6.1568      9.0869
H     -2.4269      5.3933      5.9952
H     11.9241     -3.4189      4.2691
H     14.8753      8.1024     10.3401
H      3.1027      0.6956     -1.3283
H      0.5885      2.9486      9.4056
C     15.1881      7.6089     15.3080
H      4.3991      7.1077      9.3619
C     14.5419      8.3631     11.2961
C      6.5887     10.8085     10.4765
H      3.6897      3.6038     10.4018
H     15.7973     11.3031     16.0957
C      4.1691      8.4458      4.6819
C      7.7144      7.5394      2.9745
C     19.7501     10.5509     14.0374
C     18.6725      8.4256     14.9585
C      4.2195      6.0306      6.3783
C      2.0118      5.1409      2.2657
C      6.0967      5.9944      0.3281
C      5.3275      7.6821      4.4766
C      8.0439      7.0048      1.0899
C      4.1278      4.8605      7.3081
C      1.8686      5.0318      0.5377
H      7.9238      7.5150      5.3044
C      6.1472      7.2471      5.3913
H      9.2830      5.4802      0.2254
H     -0.0597      2.3753      1.0729
C      7.4070      5.6871      1.0453
H      0.0790      3.2790      3.0574
H     10.5901     -6.3338      9.3597
O      7.3782      7.5913      6.1174
H      8.8131      9.3977     12.5040
H      1.9394      2.9430      3.0610
H     12.8693     -3.6771      2.5816
H      4.3238      4.5077      0.4319
H      4.5658      5.2934      4.1882
C     12.3461      7.4805     11.4701
H      7.2776     -6.7089      8.1790
C     15.7179      6.2915     15.8788
H     14.3715     -8.1024      8.8118
C     -1.7979      4.2825      4.4471
C      0.3794      6.5751      5.1947
H      4.4198     10.0644      9.2501
C      1.2463      5.5326      4.7618
H      2.5587      0.0746      1.9707
H     12.6911     -6.4210      8.4129
C      7.4511     -6.9229      9.2522
C      4.5927      0.7238      8.3292
O      5.9342      4.1292      5.1347
C      6.2592      7.7537      3.1085
C      9.7365     -3.4548      5.7280
C     12.9492     -6.7311      2.5807
C     -1.3173      6.2654      3.4401
H     16.4608      8.1782     21.3048
H     15.0457      9.4625     11.2310
H     -3.1347      3.1889      4.0802
C      2.4592      0.0086      9.1584
C      0.7626      5.1211      3.3531
C      5.0625      3.6688      2.4051
H     13.6819     -8.4462      7.7834
H      7.9481      7.8767      8.5494
H     10.7408     -1.0590      6.4209
H      7.6611     -2.0523      6.2462
C     14.6427     -7.0028      8.6866
C     -1.4648      5.1483      5.6921
C      3.4150      0.7938      2.2660
C      1.5318      4.2567      5.4767
C     14.8462     -6.8804      7.2702
C      2.5193      3.8805     -0.0514
H     11.5109     -6.8887      0.7605
H      4.8856      1.8550      1.2090
H     10.7163     -1.5060      8.4619
H      1.9084      0.6809     -0.1024
H     -2.0199      1.6009      3.1487
H      9.7437     -3.6319      7.8963
H      5.7071      1.2246      3.8017
C     12.3543     -4.2311      4.9734
C      8.4731     -6.0660      9.7573
H     17.7310      6.9167     15.4460
H     18.8175     10.8718     13.4683
C      9.0214     -0.8105      7.5304
H      9.7534      6.8628      1.8044
H     10.0266     -2.5537      5.0929
H      5.6702      1.7281      9.5141
C     12.7402     -5.6955      7.5446
C      0.4031      3.2961      5.1473
O      8.9857      5.8769      4.3699
C     11.4678     -5.2464      5.5378
C      6.3451      2.5150      7.2508
C      5.2354      2.2391      6.4624
C      3.5644      0.5668      5.9178
H      5.7333      8.0472      8.2117
H      5.6516      4.1107      8.5664
H      8.4223      9.2820      9.2882
H     11.4999     -3.2379      6.6928
C     14.5280     -8.3291      6.9677
H     -1.9143      2.6666      0.7503
C      3.6861      5.4525      4.8896
C      3.2570      2.4389      8.8352
H     19.1281     10.5837     15.0345
C      8.0216      7.3828     10.9192
H      3.7655      5.4607      8.0974
H     10.4285      6.8121     11.0130
H      7.1974      3.0353      7.0014
C      3.9736      2.9510      4.6141
C     17.3399      9.5442     18.7459
C      7.1268      0.3928      8.6278
C      7.7792      8.7896      8.4374
C      5.5065      4.9203      7.9780
C      6.0508      1.5904      8.3638
H     -1.0377      2.5296      8.6736
H     10.0108     -4.6011      9.3569
H      1.0389      3.8008      1.6871
H     18.6681      9.2969     13.0896
H     -0.2750      3.4656     -0.0011
C     14.4502      9.8330     13.6813
H      3.0786      4.5974      8.8653
H     10.2531     -3.4608      3.2836
