269

C      7.0854      8.7361      1.1417
C      4.1610      1.1760      7.0396
C      2.2221      2.9454      1.2194
C      7.2214      4.9501      2.8939
H     -2.9811      3.1727      3.2235
C      7.3691      3.6301      3.1436
C      3.5111      3.7986      5.3346
C     -6.3164      9.6372     10.5521
C      3.2037      6.9493      6.5233
C      5.8522      1.6862      3.7196
C     -7.0349      8.8251      9.4746
C      0.8456      8.6575      0.6445
N     -0.0697      3.1827      6.5021
C      0.1353      5.6950      0.6594
O     -1.4380      2.4197      1.6454
C      3.5349      3.7583      6.7174
C      2.8006      6.0199      4.4413
C      3.5118     10.3858      3.8210
H      1.0462      0.8076      9.5421
H     -3.5050      3.3656      4.4214
H      4.4335      5.7475      2.5569
H     -7.0540     11.5946     11.2401
C      4.2179      9.0662      3.3673
H     -9.0894      8.4598     10.3409
H     -5.7105     10.4321      9.8853
H      7.6987      3.1429      3.9964
H     -0.0073      7.6179     -2.4165
H     -1.0834      5.0246      6.2034
C      3.0953      2.5363      7.4703
H     -2.6056      9.8852     -0.7237
H      6.8187      1.1248      3.8713
O      2.2022     10.5732      1.7194
C     -4.6981     12.6892      8.7983
C     -6.1554      6.1478      9.5542
H      2.8200     -0.4078      6.2390
H      2.1714      6.1206      9.2015
C      6.1202      2.7627      2.8097
H     -6.6866      4.9985      7.0984
H     -6.0523      9.0769     11.3810
H     -8.1213     10.3022      8.1621
H     -7.6761      7.0139     10.1699
C      4.7145     10.7607      4.7871
C     -2.8853      8.7032      4.9926
O      1.9452      8.5428      5.2448
C     -1.6798      8.0167      6.9411
C     -4.3705      8.1686     12.2752
C      7.6488      7.5843      0.1992
C     -6.5187      7.1660     12.1799
H      4.8965      4.5153      2.3853
H      5.0998     10.2631      1.8752
H      1.3043     -0.8819      2.8271
H     -4.7583      6.5192      7.6753
H      2.7119     11.5200      1.8564
C     -5.8618      6.7891     10.9677
C      7.9273      5.8412      3.7756
H      9.1309      9.5426      2.1396
C     -1.2829      6.8477      5.1705
H      2.3740      8.5322      7.7223
H      4.0252      0.9187      2.4969
H     -7.8202     10.9460      9.6478
H      1.9759      6.7454      0.6880
C     -3.1077     11.7260      7.5189
C     -7.4400      5.5936      9.2726
C      3.0751      7.5534      5.2586
C     -8.1930      5.7303     13.2065
C      5.0165      9.1960      2.3070
H     -3.7627      8.0192      5.0102
H      3.5375      1.6982     10.2897
H     -6.7038     12.5000      9.8547
H      5.8094     12.1363      3.5117
C      0.5639      3.8195      8.8133
C      0.2737      8.3899     -0.8392
C      1.8223      1.8473      7.5731
C     -0.8486      6.3209      1.5409
H     -7.3790      7.8085     12.0863
H     -2.1915      1.9525      4.6536
H     -8.2870     10.4497     11.5716
C     -2.6348      7.4146     -0.0206
O      1.1130     10.7405     -0.2979
C     -6.9220      8.8038      8.0950
C      3.2795      8.3397      7.3779
C      3.6326      1.5963      9.3203
C      2.8144      1.3190      4.7022
H     -1.1059     10.2185      0.4587
H     -6.4260     12.7695      7.0920
H      3.1004      3.1146     11.0273
C      3.5477      3.0991      3.1323
H     -4.1426     10.1683      6.1045
C     -2.0350      8.5136      0.6179
C     -1.8088      7.1649     -1.3083
H     -2.3451     10.2674      7.8036
C      5.1784      2.2230      4.9447
H      4.2178     -0.2429      5.4009
H     -3.9014     13.5121      8.4585
C    -10.4623     12.5386      8.7850
C     -8.1291     11.4769      8.0920
C     -2.3711      5.1206      3.4567
C      3.7982      9.6232      6.8257
C      2.1905      3.4534      2.6145
C     -8.3099      7.9349      9.8069
H      2.6356      8.1782      0.5393
H     -3.7922      4.6503      2.3381
H      2.2432      4.1062     -0.8665
O      5.5766      6.6949      6.5894
C      0.6512      8.2868      4.5596
H     -8.4274     11.5006      7.0864
C     -2.6563      8.9122      3.6380
C     -2.1662      7.9183      2.8403
H     -7.1342      8.1086      7.5195
C     -2.9153      7.4638      7.5155
H      1.4716      2.6463      5.5299
H      1.9245      8.0803     -2.3303
H      6.7956      2.0358      1.9546
H      1.6003      4.0644      9.2061
C      3.1064      1.8949      0.9933
C      0.0042      8.7530      1.7987
C     -0.3960      3.1031      1.5597
C     -0.3418      3.8802      4.0918
C     -5.5054     11.0643      7.3072
H      2.3523     -1.0483      4.4172
H     -4.2299      7.6823      7.2233
H      3.0438     10.4236      6.8131
H     -0.1124      5.3051     -0.1992
O     -0.1642      9.8084      6.2600
C     -6.7127     11.8619      7.7745
C      0.5702      7.2865      6.7548
C      1.9232      7.6742      1.0282
H      2.9933      8.1801      2.7580
C      0.6727      7.9334      3.0046
H     -4.2416     12.2251      9.7572
C      2.1909      0.7650      3.3492
C      0.4291      2.6075      7.7807
C     -2.3643     10.7711      6.8915
C     -2.3453      3.1688      4.9964
C      5.4969     11.9025      4.6465
C      2.9373      3.6205     10.0227
C      0.8367      2.4070      0.9811
C     -1.1585      7.9824      1.6143
C     -9.1318     12.4537      8.4799
N      1.9290     -0.5237      3.6541
H      4.2778      1.1102     -0.5216
C      3.3244      1.1494     -0.1569
O      3.7669      6.1770      2.1973
C     -3.3792      6.3402     13.8296
H      5.8209      9.7989      6.3032
H     -0.2986      2.1208      8.2950
C     -2.8514      4.2134      2.6006
C     -2.6151      7.2676      8.9853
H      1.1844      1.0487      7.1955
H     -5.4683      4.5861     13.9972
H     -5.7864      8.6019      6.4014
C     -1.7041      9.5521     -0.2508
H     -8.1381      6.3132      8.8673
H      1.0891      7.7398      8.5672
H     -1.1778      9.9623      4.6610
H      2.1276      9.3864     -1.0670
H      2.8357      2.0675     -0.9389
H      0.0233      3.7782      9.8359
C      2.0823      7.4529      2.6314
H     -8.1233      4.8051      9.8332
C      1.4714      8.5168     -1.4320
C     -7.5617     10.6714     10.7994
H      2.5424     10.0676      4.3382
C      4.2146      8.1303      4.5788
C      7.9167      7.1496      3.0087
C      8.2475      9.6873      1.4739
C      6.1713      8.4025      2.1530
C      4.2758      5.9036      6.4379
C      1.7981      5.0569      2.5027
C     -6.8762      6.1565     13.2795
C      5.4323      6.9639      4.2786
C     -4.7620      6.5003     14.3077
C     -8.7459      4.9102      7.5082
C      1.3181      5.1270      1.2227
H     -2.6839      5.4869      6.1362
C      6.1364      6.8943      5.3982
H     -3.5443      5.7217     12.8705
H      0.9870      1.4102      1.3081
C     -5.9288      5.5960     14.2584
H     -0.4087      3.0021      3.4211
H     -2.0713      6.5542      9.5265
O      7.6771      6.8324      5.4269
H     -4.4151      9.3104     12.3168
H      1.3381      2.8447      2.9050
H     -0.2582      9.8693      1.9812
H      3.3779      4.8786      0.3501
H      4.5325      4.7605      4.2066
C     -0.4988      7.4996     -1.4319
C      2.6085      6.2304      2.8947
H      0.4110      6.1958      9.0569
C     -1.6594      4.4838      4.5283
C      0.2606      7.0609      5.3296
H     -8.7456      8.0986      8.6463
H      2.1067      2.0712      5.1663
C      1.2397      5.8661      4.8545
H      3.3194      0.0604      1.5739
H      3.7038     11.4290      3.0562
H     -0.5269      7.8547      8.7114
C     -5.0492      6.4131      8.8064
C      4.3462      0.7493      8.4375
C      6.5713      7.7351      3.2205
C     -3.0967      9.9470      5.8481
C     -0.2934      6.2832      3.0270
C     -1.6069      6.4931      3.5412
H     -8.7255      6.6221     12.8026
H     -2.4272      3.0975      6.1191
C      2.1009      1.0547      8.8931
C      0.6907      5.1906      3.4467
C      4.7165      3.4084      2.3800
H      2.1073      4.3024      7.3884
H     -5.0345      8.3688      9.2938
H     -2.2465     12.2843      8.1409
H     -5.6501     11.1233      5.9641
C      1.4784      6.7196      8.7919
C     -1.7018      5.4404      5.6543
C      3.0427      0.7534      2.1900
C      1.0175      4.9116      5.8303
C      1.6692      6.5013      7.3570
C      2.4355      4.2051      0.3155
H     -1.7374      5.9528      1.7241
H      4.0915      2.2708      1.2073
H      3.1410      0.1431     -0.0407
H     -1.4962     11.1000      6.5710
H      5.0380      0.9655      3.3078
C     -0.5260      9.1772      5.1401
C     -4.2338      7.5128      9.5203
H     -8.4445      4.9110     13.6792
H      8.8782     10.3904      0.7040
C     -4.5068     11.7695      7.8328
H     -3.1660      5.3925     14.5973
H     -3.1552     10.5516      4.9651
H      6.1606      2.1387      8.9567
C     -0.3469      7.5728      7.6101
C      0.6723      3.5692      5.4142
O      9.0009      5.2472      4.4143
C     -1.5828      8.0975      5.4992
C      6.4702      1.9321      7.3175
C      5.2725      1.7947      6.2766
C      3.3584      0.4709      5.8250
H      9.4711      5.9699      4.9149
H      6.7397      2.8815      7.5847
H     -7.3021      3.7076      8.3410
H     -4.6824      9.2011      7.9113
H      0.7194      9.3972      6.4285
H      5.8651     12.3505      5.4891
H    -11.3055     11.9902      8.4655
C      1.4504      5.1403      7.0104
H     -0.4691      4.2688      1.8409
C      3.8688      5.0744      5.0087
C      3.2498      2.9251      8.9024
H      8.0585     10.6323      1.8710
C     -4.6510      7.4276     10.9264
H     -9.1192      5.2283      8.4591
H     -2.4934      6.8439     -2.0829
H      7.5140      1.6638      6.8777
C      3.7056      2.5187      4.5316
C      4.8301      9.7418      5.8444
C     -6.2290     12.9082      8.9041
C     -5.6180      9.3329      7.4733
C     -7.2842      4.6559      7.9133
C      5.9740      1.3203      8.4804
H     -0.1905      4.4552      8.1284
H     -2.4055      8.1888      9.1918
H      0.5894      2.5044     -0.2734
H      6.3132      9.3985      0.7261
H     -0.4940      2.3483      6.2673
C      1.4907     10.1274      0.6078
H      2.5272      4.6523      9.7009
H     -2.8382      9.9041      3.1861
