262

C      7.0949      8.4022      0.9806
N     -2.0891     10.6302      1.3900
C      3.8406      1.7506      7.1033
C      2.2891      2.3213      1.7963
C      7.7746      4.7225      2.1157
H     -3.0019      6.8558      2.3142
C      7.6103      3.3000      2.7128
C      3.4739      4.0572      5.2077
C      3.3619      7.0948      6.3482
C      6.1494      1.8169      3.9933
C     -7.3502      8.3042     10.0745
C      0.6551      8.7897      0.7276
N     -0.2765      2.5929      6.3967
C      0.2727      6.1933      0.6727
O     -1.2166      2.3792      0.7489
C      3.2421      4.0112      6.6560
H      0.5602      6.8832     -0.4642
C      2.9236      6.1613      4.1027
C      3.2452     10.2562      3.5573
H      1.0441      1.0902      9.7239
H     -2.7609      3.1666      4.6511
H      4.1785      5.3773      2.3874
C      3.9281      9.0537      3.0259
H     -8.4793      6.7230     10.9877
H     -7.6953      8.6851     11.0571
H     -0.7499      5.8315      6.7878
H     -5.8223      2.9708      7.8708
C      2.7546      2.8292      7.5449
H      7.0773      1.5013      4.1519
O      0.9807     10.6371      2.4242
C     -5.0698     12.4085      8.7488
C     -6.7143      6.0793      9.7425
H      2.3242      0.5253      6.9297
H     -9.3534      5.5389      7.9849
C      6.4241      3.0091      3.1255
H     -7.3543      3.1823      7.3710
H     -8.7600     10.5015      9.2438
H      2.7423      5.7928      9.1696
C      4.4522     10.5955      4.4623
C     -2.8232      8.8444      4.9960
O      2.1539      8.5864      4.7562
C     -1.5111      8.6546      6.8696
C     -4.4739      7.8896     11.7047
C      7.5013      7.3677      0.1049
C     -6.4331      6.7130     12.1501
H      5.1501      3.7027      1.6370
H      4.6790     10.4258      1.1823
H      1.8791     -0.2259      5.6223
H     -4.4843      6.7488      7.5110
H      2.3229     11.7096      0.0481
C     -5.2411      2.5940      8.9211
H      0.3495      1.7345      2.1925
C     -5.7146      6.3428     10.6921
C      7.8087      5.8606      2.9668
H      7.8830      7.7577      1.9749
C     -1.0999      7.0490      5.0624
H      3.2893      8.2115      8.0200
H      3.9454     -0.5768      2.7186
H      2.1943      7.6093     -0.3841
C     -3.3810     11.5166      7.1848
C     -6.7870      4.7665      8.9592
C      3.3019      7.5396      4.8037
C     -7.9337      5.0153     12.2801
C      4.8268      9.4941      1.9526
H     -3.5328      7.7209      5.2468
H      8.1611      7.8477      4.1601
H      3.5897      1.4359     10.4705
H      5.0064     12.8600      4.5408
C     -0.5946      3.8299      8.3647
H      8.9292      9.0001      1.1757
C      0.1065      8.9353     -0.7109
C      1.4173      2.1845      7.9115
H     -1.5851      7.9340      9.3669
C     -0.7900      6.4426      1.7143
H     -7.1382      7.4570     11.8578
C     -2.6165      7.3353     -0.2724
O      2.5089     10.8911      0.6867
C     -6.6392      8.5968      8.8645
C      3.8354      8.1934      7.1930
C      3.2943      1.7264      9.3680
C      2.8888      1.6660      4.8173
H     -2.6138     11.5613      1.5449
H     -7.0579     12.0648      7.0657
C      3.8882      3.2350      3.2102
C     -2.2866      8.3754      0.7894
C     -1.7337      7.2656     -1.3889
H     -1.8789     11.4299      5.7282
C      5.1792      2.0252      4.9997
C    -10.5401     12.9095      8.7477
C     -8.4288     11.3660      8.5533
C     -2.1764      5.4029      3.8733
C      3.7719      9.6812      6.7261
C      2.6871      3.4320      2.3655
C     -7.8181      6.8372     10.0370
H      2.8235      9.0250      0.8447
H     -3.2338      5.8438      4.2968
H      1.6085      5.1980     -1.3800
O      5.8549      6.5274      6.4140
C      0.8182      8.0884      4.4094
H      4.2904     10.2488      7.4855
C     -2.8171      8.8358      3.5626
C     -2.2036      7.3993      2.8391
H     -6.9585      7.6297      8.2843
H      8.5464      2.8344      2.8914
C     -2.6412      8.4710      7.7233
H      2.4575      4.1138      4.6483
H      0.5398     10.5663     -2.5157
H     -7.8596      3.2062     13.2689
H      0.1672      4.2900      8.8809
C      3.2975      1.1534      1.9225
C     -0.1405      8.6079      1.8391
O     -8.7070      3.8246     13.2148
O     -5.7482      3.9464     11.0271
C     -0.1743      3.0880      1.2911
C      0.0527      3.6849      3.7921
C     -5.9025     10.5324      7.6892
H     -3.0790      9.4714      7.9003
H      2.8539      9.7271      6.5003
H     -0.1028      9.8430      4.1584
H     -0.2379      8.1118     -2.5366
O      0.4957      9.7647      6.3737
C     -7.0265     11.5456      7.9359
C      0.6677      7.2204      6.7481
C      1.9817      8.1349      0.7105
C      0.7179      7.8255      2.8902
H     -4.2782     13.0488      8.5684
C      2.5469      0.3758      3.9792
C     -0.0169      2.6117      7.8689
C     -2.7307     10.9912      6.0223
C     -2.8063      3.7148      5.6597
C      4.9797     11.6810      4.8781
C      2.7504      4.2378      9.8049
C      0.9595      1.9734      1.2914
C     -1.2826      7.6639      1.5992
C     -9.2323     12.5498      8.8085
N      1.6866     -0.3541      4.6434
C      4.0686      0.6445      0.7516
O      3.9476      6.1738      2.0742
C     -3.3303      6.0968     13.0143
H      5.3566      8.7279      6.0527
H     -0.1584      1.6395      8.2497
C     -2.5324      4.6053      2.4778
C     -2.5839      8.3221      9.4257
H     -6.1217      1.8687      9.1473
H      1.3407      1.6094      6.9519
H     -5.1556      3.3266     11.7280
H     -4.7922      9.1860      9.1432
C     -2.5357      9.7207      0.5166
H     -8.5466      7.1886      9.2829
H      2.2421      7.5035      8.9365
H     -0.3496      9.5898      2.4370
H      1.4917     10.2539     -1.1748
H      3.7274     -0.2821      0.3572
H     -0.5820      3.2155      9.2121
C      1.9414      7.5509      2.1885
H      3.8696      1.2228     -0.2868
C      0.6210      9.9308     -1.5922
H      2.1433     10.2426      3.8715
C      4.4914      8.4379      4.2720
C      7.6494      7.4156      3.1435
C      7.9292      9.6939      0.9637
C      5.7077      8.3315      1.7013
C      4.4562      5.9037      6.0956
C      1.8347      4.7620      2.0193
C     -6.3970      5.2673     12.7588
C      5.6692      7.5032      4.0883
C     -4.6213      6.2332     13.5489
C     -8.6413      5.0533      7.2525
C      1.2582      5.1202      0.7439
H     -2.6301      6.1025      6.3643
C      6.3336      7.0160      5.3636
H     -1.2363      2.3711      5.9977
H     -3.1942      5.0986      1.8566
H      1.0834      1.1758      0.2420
C     -5.3820      5.0555     13.5578
H     -0.9878      3.4642      3.8347
O      7.3310      7.7424      5.6101
H      8.2916      9.9892     -0.0489
H     -0.1102      3.0554      2.6476
H     -1.6941     10.6110      2.2860
H      2.8434      5.7280     -0.5004
H      4.9216      4.8955      3.8088
C     -0.5670      7.8936     -1.4449
C      2.7297      6.1959      2.6062
H      0.9948      5.7990      9.0278
C     -1.9859      4.7355      5.2635
C      0.4031      6.7830      5.3126
H      4.7799      7.7238      7.8950
H      2.0813      2.2943      4.2465
C      1.2746      5.6882      4.5159
H    -11.1552     11.9961      8.8632
H      1.9622     -0.3139      2.4555
H      2.8410     10.9943      2.8383
H      0.1536      8.2342      8.4559
C     -4.4486      6.3974      8.4630
C      4.2502      0.9360      8.5111
C      6.1813      7.4675      2.7995
C     -3.6412      9.9736      5.5590
C     -0.0838      6.3695      2.9347
C     -1.3127      6.5337      3.7092
H      2.4038      3.8940     -0.2443
H     -8.2468      4.7167     11.2052
H     -2.4705      3.2058      6.5487
C      2.0080      1.3641      9.0847
H     -0.5873      9.3820      7.0698
C      0.6152      4.9824      3.1205
C      5.1580      3.5459      2.6706
H      1.3175      4.5039      7.6100
H     -4.7689      8.6781      7.7338
C     -5.9922      3.8789      9.7068
H     -2.9004     12.5262      7.4973
H     -5.7588     10.1883      6.5894
C      1.9555      6.4309      8.6082
C     -1.6296      5.9863      5.9469
C      2.9757     -0.0045      2.5997
C      0.9689      4.7309      5.5844
C      2.0651      6.6683      7.1791
C      2.0019      4.8653     -0.5376
H     -1.5233      4.2563      1.9433
H      4.0966      1.5263      2.4168
H     -2.9933      9.3167      9.9864
H      5.1068      0.6800      1.1776
H     -5.3327      5.7797      8.7456
H      5.7642      1.0642      3.0941
C     -0.1683      9.1477      4.9876
C     -3.9091      7.2368      9.3805
H     -8.3108      6.0686     12.6136
H     -3.5359      8.7960      2.7459
C     -4.6376     11.3809      7.7822
H     -2.9714      3.8030      2.8305
H     -4.4326      9.9209      6.2900
C     -0.3493      7.7111      7.4027
C      0.4272      3.4181      5.4212
O      7.9611      5.1853      4.1962
C     -1.5089      8.5603      5.3899
C      6.2526      1.3362      7.2106
C      5.2367      1.9681      6.4173
C      3.0684      0.8100      6.0777
H      7.8253      7.2168      6.2649
H      7.2789      0.9831      6.8519
H      4.6507      3.0502      8.4939
H      0.8217      8.6766      6.4037
H      5.8239     11.5653      5.5321
C      1.8142      4.9638      6.6826
C      4.1713      5.3962      4.7163
C      3.5254      3.0769      8.9135
H      7.5913     10.7208      1.4125
C     -4.5532      6.8337     10.6943
H      2.7104      3.7909     10.7183
H     -2.2441      6.7289     -2.2058
C      3.9681      2.6989      4.7028
C      4.5747      9.5363      5.4608
C     -6.4004     12.7082      8.8947
C     -5.4608      9.1759      8.2570
C     -7.6342      4.2942      7.9552
C      5.8983      0.8681      8.4471
H     -1.5685      4.0546      8.5429
H     -2.5877      9.4337     -0.7135
H     -2.8825      5.2690     13.3261
C      1.1268     10.2645      1.3385
H      3.5010      4.9149     10.1175
H     -2.0244      9.4608      3.6541
