267

C      6.8879      8.3041      0.5641
N     -3.2973     10.6141      2.1977
C      3.9286      1.5227      6.9842
C      2.3026      2.6464      2.1304
C      7.4098      4.6749      1.9242
H     -3.0179      6.4075      2.6694
C      7.4801      3.2148      2.3045
C      3.2133      3.9283      5.3625
C      3.4874      7.1045      6.7920
C      6.6609      2.1856      4.1569
C     -7.1486      8.1351      9.3095
C      0.6267      8.7652      1.0556
N      0.4499      2.3422      6.1867
C      0.3936      6.3150      0.8560
O     -1.0572      2.3026      1.3256
C      3.2595      3.9065      6.9620
H      0.4014      7.1644     -0.7718
C      2.8042      6.3042      4.3161
C      3.9293     10.5426      3.0492
H      1.1657      1.3408     10.0020
H     -2.3609      2.7387      5.2792
H      4.9903      5.9405      2.6356
C      4.0104      9.1422      2.8947
H     -8.2717      6.7395     10.4118
H     -6.4922      8.3024     10.2504
H      1.9460      2.8854     11.1001
H     -2.7385      6.5051      6.5120
H      6.4618      1.5853      8.7585
C      3.0261      2.7091      7.7813
H      7.5284      2.4778      4.7318
O      1.5265     10.1667      2.8460
C     -5.0911     12.3134      8.9743
C     -6.7170      5.7413      9.5711
H      3.4496     -0.5272      6.4491
H     -8.7461      5.2134      8.5043
C      6.3368      2.5994      2.8347
H     -6.9136      3.2529      7.6202
H     -8.8455     12.1365      9.4562
H      2.1479      8.3419      8.8232
C      4.5377     10.8850      4.3043
C     -2.6195      8.7317      5.2346
O      1.9797      8.6386      5.0752
C     -1.1562      8.6064      7.1692
C     -4.5609      7.9763     11.4333
C      7.6498      7.3501     -0.3879
C     -6.5081      6.6367     11.7930
H      4.8911      3.3293      1.2362
H      4.2497      9.4966      1.0208
H      2.4375     -1.8378      5.1000
H     -5.5079      6.2952      7.4683
C     -4.7327      3.0996      8.3153
H      0.7765      1.0855      2.0319
C     -5.7703      6.0685     10.5948
C      7.8933      5.4821      3.1492
H      7.9030      6.9099      1.7521
C     -0.9591      6.5951      5.2135
H      3.6551      9.0438      8.1953
H      4.5394     11.0542      2.2294
H      2.5803      5.6768      0.5304
C     -3.3082     11.2177      7.7310
C     -6.6547      4.5496      9.1014
C      3.1084      7.6450      5.1475
C     -8.3655      5.0760     12.1605
C      4.1369      8.5256      1.6542
H     -3.1198      7.8362      5.6133
H      8.2776      7.4748      3.0086
H      3.8539      1.5690     10.6949
H     -1.3057      1.9208      0.2146
H      5.1148     12.5008      3.7505
C     -0.5178      3.0774      8.3112
H      6.2145      9.9450      1.8985
C      0.2022      8.9937     -0.5118
C      1.8906      2.0535      8.2265
H     -1.9984      6.8057     -2.0546
C     -0.8594      6.1694      1.5251
H     -6.8345      7.7431     11.4413
H      6.5418      8.8822     -0.2797
C     -2.9317      7.5703     -0.4254
O      2.7914     10.3631      0.7691
C     -6.2706      8.5916      8.2316
C      4.0348      8.5009      7.2612
C      3.6594      1.4461      9.6498
C      2.5771      1.1441      5.1401
H     -2.1865     10.7815      2.5785
H     -3.6058     11.5747      1.7655
H      5.7023     -0.1418      6.9244
H      2.7516      6.7888      9.5247
C      4.0257      3.2811      3.2245
C     -2.7464      8.4615      0.7635
C     -1.6274      7.0893     -1.0512
H     -2.2778     11.9622      5.6526
C      5.2402      2.3717      5.1634
H      4.2740     12.5181      5.6387
C    -10.9163     12.5567      8.8909
C     -8.4863     11.2268      7.7547
C     -2.2228      4.9868      4.0024
C      3.6799      9.4631      6.3885
C      2.8022      3.7555      2.6460
C     -7.7275      6.8195      9.3845
H    -10.8647     11.8556      9.6009
H      2.4762      7.5875      0.5996
H      8.5444      4.0750      4.3218
H      0.2390      3.5422      0.7290
O      5.7637      6.4071      6.3514
C      0.7171      8.0503      4.6340
H     -8.9769     10.6423      6.8747
C     -2.9121      8.5076      3.6684
C     -2.5033      7.2837      2.8516
H     -5.7269      8.9659      9.0037
H      8.2145      3.2395      3.0671
C     -2.2109      9.1817      7.8844
H      2.2055      3.7055      4.7359
H     -9.2276      4.6478     14.1224
H     -0.4499      2.7500      9.6056
C      3.1275      1.3846      1.8264
C     -0.3155      8.4452      2.1987
O     -8.8723      4.1700     13.3016
O     -4.7218      4.0869     10.3471
C     -0.3298      3.0353      1.9411
C      0.4273      3.7541      4.2716
C     -6.1221     11.0785      7.1232
H      2.5769      9.8624      6.5897
H     -0.6885      9.5090      4.1487
H     -0.3381      7.7991     -2.3513
O      0.7910     10.1839      5.6459
C     -7.2123     11.4247      8.0473
C      0.8783      6.9479      6.9784
C      1.4812      7.4803      1.1334
H      2.6217      8.3823      2.7789
C      0.5775      7.4731      3.2912
H     -4.8577     13.3214      9.3526
C      2.8165     -0.1199      3.8242
C      0.4252      2.2579      7.5713
C     -2.9469     11.0896      6.2158
C     -1.9600      3.5205      5.8425
C      4.9367     12.0979      4.8213
C      2.8738      3.5255     10.6772
C      0.8728      2.2380      2.3184
C     -1.4806      7.4316      1.6429
C     -9.2642     12.2454      8.4794
N      2.2849     -1.0740      4.5422
H      7.5864      2.7305      1.0876
C      3.3775      1.3402      0.4053
O      4.0955      5.9039      2.0048
C     -3.3838      6.4464     13.3228
H     -7.1796      9.1800      6.0743
C     -2.3013      4.2171      2.8797
C     -2.8596      8.3577      9.0890
H     -5.5717      2.5181      7.5964
H      2.0645      0.4402      7.0849
H     -5.3069      9.5010      6.5081
C     -3.1469      9.7026      1.1429
H     -8.1533      6.4480      8.6627
H     -0.7559      9.5107      2.2840
H      1.0803      9.6061     -2.1409
H      2.8824      0.6062     -0.2601
H     -1.4001      3.7646      8.2352
C      1.8612      7.7390      2.5653
C      0.9702      9.9857     -1.1747
H     -5.2274      5.0307     10.6565
H      1.1773     -1.1307      4.7885
C      4.2348      8.4368      4.1970
C      7.5498      6.7208      2.7117
C      7.1310      9.4438      1.4179
C      5.5814      7.5982      1.5238
C      4.2660      5.9121      6.3079
C      2.0360      5.0663      2.5581
C     -7.1161      5.7899     12.7534
C      5.4499      7.6295      3.9785
C     -4.7525      6.2772     13.3151
H      1.9668      9.9719     -0.6607
C     -8.4681      4.7796      7.3995
C      1.4565      5.2873      1.0996
H     -3.0423      9.2522      7.1798
C      6.1722      7.2061      5.1591
H      1.4343      1.2213      5.2307
C     -5.9544      5.3137     13.5316
H     -0.5437      3.8696      4.6994
O      7.3343      7.7151      4.9851
H     -4.2344      8.7965     10.9123
H      7.7311      9.4315      2.2271
H      0.8084      2.9636      3.6624
H      0.9209      4.3823     -0.8044
H      4.6735      5.1382      4.6264
C     -0.2709      7.7412     -1.2814
H     -6.4996      4.5178      6.9278
C      2.8042      6.4008      2.8351
C     -2.2554      4.6768      5.2990
C      0.5880      6.9141      5.5067
H     -7.9401      8.9145      9.1974
H      3.0610      2.0640      4.9254
C      1.4902      5.6345      4.9630
H    -11.5616     12.3151      8.0749
H      2.4926     -0.8473      2.0112
H      2.2733     10.6891      2.9315
C     -5.1055      7.5067      7.8910
C      4.2488      0.7376      8.4581
C      6.2321      7.3451      2.7339
C     -3.4249     10.1060      5.2763
C      0.0426      6.1682      3.2990
C     -1.5083      6.3533      3.7770
H      2.3434      3.3887      0.5070
H     -8.1483      4.5342     11.1705
H     -1.6923      3.5318      6.9678
C      2.0140      1.1529      9.2703
H     -1.7168     10.6668      6.3118
C      0.9855      5.0395      3.7615
C      5.1069      3.0124      2.3608
H      1.5342      4.5944      8.5226
H      5.1680      8.4891      7.4328
C     -5.3705      3.8019      9.3343
H     -2.6799     11.7200      8.2911
H     -6.3464     11.3395      6.0890
C      2.2118      7.1969      8.7861
C     -1.8067      5.9125      6.2178
C      2.6867      0.0544      2.5067
C      1.2919      4.6744      6.2826
C      2.2241      6.4600      7.5311
C      1.1817      3.9659      0.3954
H     -1.1768      5.1901      1.0450
H      4.2563      1.3564      2.0388
H     -2.6617      8.4119     10.1746
H      4.4373      1.1585      0.0493
H     -4.3417      7.7414      6.8869
H     -3.8419      2.4933      8.4852
H      6.9845      1.1120      4.1999
C     -0.2108      9.1611      5.0007
C     -4.3521      7.6950      9.1241
H     -8.9464      5.9487     12.1182
H     -3.9760      8.4329      3.7702
C     -4.5466     11.4418      7.8886
H     -3.0617      3.3080      2.7688
H     -4.4345      9.6164      5.1081
C     -0.0526      7.7738      7.6887
C      0.4187      3.5634      5.7996
O      8.6055      5.2411      4.1569
C     -1.3538      8.5062      5.6728
C      6.0646      0.9758      6.8533
C      5.1092      1.7629      6.3293
C      2.9140      0.5657      6.4401
H      7.1552      1.5361      6.6807
H      4.8121      3.2106      9.5388
H     -4.7778     12.1060     10.0331
H      0.1511     10.9013      5.9921
H      6.0226     12.0776      5.0598
C      1.9857      4.9784      7.5886
H     -0.4425      4.0519      1.6911
C      3.7196      5.3368      5.1036
C      3.6493      2.9522      9.3423
H      7.1381     10.4453      0.9169
H     -0.2377      6.3377      0.0516
C     -4.5991      7.0452     10.3008
H      3.6059      3.2391     11.4075
H     -1.8097      6.1961     -0.4543
C      4.2126      3.0294      4.5862
C      4.4480      9.6698      5.1770
C     -6.6541     12.2860      9.1142
C     -6.2515      9.5058      6.9966
C     -7.1747      4.2621      7.7033
C      5.8406      0.7893      8.3510
H     -1.1956      5.5868      7.0302
H     -3.6628      9.9916      0.1939
H     -7.1969     12.2386      9.8461
H     -3.0741      5.4044     13.7059
C      1.8058      9.9241      1.3630
H      2.8214      4.7879     10.5386
H     -2.7473      9.5863      3.5223
