261

C      6.9535      8.4828     13.6037
N     -2.2713     10.5998     14.4687
C      3.9776      1.7088     20.1060
C      2.2053      2.4726     14.7765
C      7.4887      4.7441     15.0911
H     -3.1755     20.2724      2.4466
C      7.6457      3.5578     15.7746
C      3.5264      3.9317     18.1416
C      3.2440      7.0007     19.4893
C     -6.7014     27.5534      4.0221
C      5.7476      8.3928      9.9941
C      0.5957      8.9434     13.6909
N     -0.2909     15.8369      6.1818
C      0.3583      6.2084     13.4286
O     -1.3974      2.7301     13.8381
C      3.2837      4.0603     19.7206
H      0.3919      6.0129     12.1174
C      2.8708      6.1467     17.1941
C      3.5451     10.3631     16.4174
H      1.1003     14.4822      9.7300
H      3.7682      5.2318     15.7252
C      3.8740      8.8784     15.8700
H      4.1417      6.5823     11.0257
H      4.9043      9.1126     10.2239
H     -0.6677     18.6325      6.7924
H      7.5439      3.0445      7.8531
C      3.1610      2.8863     20.4896
H     -5.9706     27.3776      4.6299
O      1.0740     10.5375     15.5723
C     -5.1215     25.3635      8.8249
C      6.1941      5.8386      9.9261
H      2.2425      0.3642     19.6500
H      3.8327      5.5817      8.2616
C      6.5838      2.7701     16.0588
H      5.6942      3.8460      6.8995
H      5.0567     10.5387      9.4668
H      1.9370     18.0919      8.5118
C      4.6321     10.5773     17.3236
C     -3.0067     21.8801      4.8398
O      1.8831     21.4000      4.7053
C     -1.3098     21.4864      7.0739
C     -4.2667     20.8036     11.7301
C      7.7187      7.5088     12.9067
C      6.6204      6.6611     11.9982
H      5.2348      4.4342     15.3644
H      4.6546     10.1482     14.3928
H      1.6276     -0.3096     18.6419
H     -4.0951     19.7844      7.2764
H      1.9334     11.8192     13.5653
C      7.4307      2.6547      8.8315
H      0.5835      0.7766     14.0610
C      7.3225      6.4002     10.6957
C      7.7425      5.7301     15.9491
H      8.2021      7.6558     15.0494
C     -1.1269     19.8441      4.9576
H      3.5078      8.5327     21.3271
H      3.5238     -0.4029     15.4203
H      1.6011      7.2304     12.8499
C     -3.3725     24.6730      7.2761
C      6.2588      4.8570      8.9185
C      3.0395      7.5689     17.6278
C      4.9800      4.9613     12.4214
C      4.7987      8.9338     14.7993
H     -3.4808     21.0700      5.2054
H      8.1425      7.4211     16.7234
H     -9.2969     27.6031     10.7856
H      4.0801     12.4737     17.3850
C     -0.4027     16.6135      8.7008
H      8.9340      9.2407     13.9575
C      0.4233      8.8897     12.1555
C      1.6487     15.0599      7.6776
H     -1.9034     20.9855      9.8612
C     -0.7217      6.3673     14.3992
H      5.5829      7.0445     11.5857
C     -2.7092      7.3427     12.5464
O      2.3392     11.1035     13.8595
C      6.5223      8.3634      8.9630
C      3.8141      8.3007     20.3430
C     -9.7069     27.6800      9.7611
C      2.7417      1.6159     17.9903
H     -2.8159     11.2820     14.1380
H      5.4374     11.7106      6.6833
H    -11.1874     30.2348     10.0293
C      3.9706      3.0218     16.0351
H     -2.9983     20.9194      7.1985
C     -2.2939      8.4427     13.4323
C     -1.8259      7.3096     11.5448
H     -1.8599     24.1505      5.7444
C     -7.7364     27.9689      5.0916
H      4.0247     -0.0892     19.1623
C      2.3631     12.5649      8.9565
C      4.3882     11.1521      8.5228
C     -2.4572     18.1465      3.8080
C      3.7396      9.5671     19.3888
C      2.7225      3.5472     15.3173
C      4.8955      6.7447     10.0853
H      2.7181      8.6602     13.7191
H     -3.4820     18.5914      3.6938
H      1.3138      4.5877     12.1273
O      5.8316      6.9571     19.3054
C      0.5872     20.9515      4.2825
C     -2.5452     21.8241      3.4251
C     -2.1948     20.4967      2.9196
H      6.9325      7.3522      8.5390
H      8.4166      2.7627     15.9338
C     -2.7616     21.8385      7.7690
H      2.4678      4.2042     17.7986
H      0.4600      9.7583     10.2874
H      4.7619      3.3128     13.3943
H     -0.1896     17.4635      7.9018
C      3.2442      1.3424     14.9400
C     -0.2740     21.4054      1.8463
O      4.3329      4.0883     13.1726
O      7.3609      3.9440     10.7574
C     -0.1846      2.8393     14.0738
C      0.0906     16.6375      3.8473
C      6.9878     10.5092      7.6728
H     -2.7022     23.0600      7.8837
H      2.6014      9.8638     19.6282
H     -0.2700     22.7706      4.0652
H     -0.2528      8.0065     10.4129
O      0.4286     22.7315      5.9696
C      5.7306     11.5935      7.9786
C      0.7906     20.0682      6.6274
C      1.7412      7.9783     13.7647
H      2.7282      8.6511     15.8468
C      0.4881     20.6080      2.8257
H     -4.3687     25.8544      9.4282
C      2.3789      0.4439     17.1418
C      0.1638     15.5818      7.7074
C     -2.8782     24.0055      6.0350
C     -2.6179     16.4672      5.6128
C      4.8796     11.8757     17.5272
C     -9.9521     30.1937      9.8381
C      0.8043      1.8400     14.1028
C     -1.5025      7.8206     14.4930
C      3.7270     12.3434      8.6214
N      1.8865     -0.5564     17.6133
C      4.2400      0.8645     13.8826
O      4.0549      5.8965     15.0647
C      9.7199      6.0709     13.1208
H      5.6120      8.8432     18.6202
H     -0.2044     14.5789      8.2721
C     -2.1838     16.9228      2.7529
C     -2.7925     21.3867      9.1962
H      7.9764      2.1438      9.5325
H      1.4909     14.3103      6.9406
H      8.2080      3.5700     11.1334
C     -2.3684      9.7761     13.4143
H      4.5218      6.5800      8.7645
H      2.8256     19.6690      8.7153
H     -0.6849     22.2955      2.5208
H      1.5698     10.4999     11.7034
H      4.0046     -0.3411     13.8127
H      0.0131     16.8255      9.6960
C      1.8811      7.3720     15.0509
H      4.1454      1.6671     12.9034
C      0.8684      9.9298     11.2391
H      2.4075     10.3005     16.9318
C      4.3036      8.1705     17.2770
C      7.7355      7.2119     15.9006
C      7.6331      9.6681     13.7567
C      5.7027      7.9599     14.5181
C      4.5499      6.1115     19.2263
C      1.9032      4.7682     15.3019
C      6.2846      5.4799     12.8706
C      5.4934      7.5404     17.0970
C      8.2739      6.1421     13.3446
C      4.2875      5.0263      7.3430
C      1.1292      5.0138     13.7660
H     -2.4424     18.4797      6.9257
C      6.2128      7.1650     18.1478
H     -0.9486     15.0739      5.8276
H     -3.1011     17.2813      2.1335
H      1.0082      1.9265     13.0156
C      7.4258      5.1428     13.6865
H     -1.0409     16.7228      3.8407
O      7.5068      7.9317     18.3324
H     -4.0041     21.7617     11.2490
H      8.0515     10.1704     12.7616
H      0.3994     16.1652      2.7597
H     -1.2059     10.7690     14.6125
H      2.6808      5.4323     12.2648
H      4.8310      5.5525     17.0139
C     -0.5929      8.0962     11.4262
C      2.7936      6.0438     15.4691
H      1.3607     19.9236      9.0332
C     -2.2917     17.7896      5.2615
C      0.2986     19.8329      5.2023
H      4.9901      7.8991     20.6264
H      2.3289      2.4177     18.5672
C      1.3298     18.7330      4.7371
H      1.3090     12.3041      9.0276
H      1.8447     -0.2958     15.2973
H      3.4731     11.1188     15.5724
C     -4.3389     19.4265      8.3171
C     -8.6913     26.5749      8.5865
C      6.3440      7.6671     15.7982
C     -3.7190     22.9961      5.5947
C     -0.2009     19.1030      2.7752
C     -1.4654     19.2757      3.6163
H      2.4607      3.7655     13.0064
H      5.1906      4.5739     11.1593
H     -2.7952     15.8200      6.6414
C      2.1068     14.2215      9.0705
H     -0.7518     22.2564      7.5301
C      0.8349     18.0320      3.4264
C      5.3421      3.2678     15.6323
H      1.5466     16.8854      7.5086
H      7.9194      9.0300      7.5623
C      6.9630      3.7686      9.4571
H     -2.7179     25.5616      7.6849
H      6.9703     10.4822      6.5935
C      1.9411     19.1999      8.5658
C     -1.6772     18.7073      6.0116
C      2.6716      0.1967     15.6881
C      1.4363     17.3661      5.5964
C      1.9623     19.2623      6.8913
C      2.0837      4.7837     12.8549
H     -1.5560     17.6762      2.3494
H      4.1226      1.7048     15.5989
H     -2.9594     22.2609      9.6195
H      5.2470      0.7759     14.2322
H     -5.4559     19.2074      8.5684
H     -7.0600     26.6554      3.5237
C     -0.2384     21.9545      4.8074
C     -3.9657     20.3421      9.4036
H      4.0607      5.6406     12.4991
H     -3.4083     22.0810      2.7901
C     -4.6155     24.4301      7.8706
H     -2.0636     15.9159      2.9597
H     -4.5043     22.4928      6.2288
C     -0.2944     20.5140      7.5314
C      0.5324     16.4611      5.1850
O      8.0264      5.4088     17.3561
C     -1.4954     21.2819      5.4278
C     -6.6945     26.8065      6.9044
C     -7.7057     27.5634      6.4209
C      3.1734      0.7961     19.2584
H      7.9956      7.1578     18.5485
H     -5.7508     27.3045      6.5979
H      1.2813     22.1898      5.5830
H      5.5522     11.6381     18.3829
C      2.0097     17.8087      6.8582
C      4.0186      5.3103     17.5944
C     -9.3946     28.9881      9.1151
H      7.6485     10.5166     14.4946
C     -4.4885     20.0845     10.5406
H     -9.5798     29.8910     10.9556
H     -1.6629      6.6145     10.5569
C      4.0925      2.6969     17.4922
C      4.7786      9.3101     18.1447
C     -6.4207     25.6268      8.7616
C      7.3334      9.3888      8.3911
C      5.3366      4.2519      7.8676
C     -7.0356     26.8462      8.7000
H     -3.1051      9.8834     12.6233
H      9.8071      4.9467     13.0439
C      1.2451     10.2849     14.3503
H     -9.2635     31.1262      9.7740
H     -1.7554     22.6853      3.3116
261

C      7.0177      8.3998     13.5613
N     -2.2301     10.7438     14.4615
C      3.8448      1.6544     20.2923
C      2.2475      2.3716     14.7540
C      7.5831      4.7155     15.0409
H     -3.3745     19.8300      2.3828
C      7.6256      3.3056     15.7030
C      3.5565      3.8688     18.1862
C      3.4194      7.1413     19.3750
C     -6.6769     27.5716      4.2093
C      5.4961      8.2986      9.8261
C      0.7011      8.8632     13.7193
N     -0.3417     15.7734      6.0563
C      0.3130      6.2233     13.4732
O     -1.2825      2.5476     13.8565
C      3.2670      4.1944     19.6310
H     -0.0646      6.8686     12.5978
C      2.9000      6.1532     16.9105
C      3.4809     10.1952     16.3541
H      1.4182     14.5040     10.0742
H      4.7930      5.3422     15.7942
C      3.9106      8.7599     15.9875
H      3.8830      6.7987     10.5351
H      5.6225      9.3024     10.3456
H     -0.7249     18.0879      6.3412
H      8.0952      2.9520      8.0582
C      2.9890      2.9564     20.6588
H     -5.7774     27.3172      4.5306
O      1.2132     10.7069     15.4877
C     -5.1355     25.4311      8.7316
C      6.0781      6.0069      9.7127
H      2.4295      0.2804     19.5891
H      3.6963      5.5321      8.3252
C      6.4040      2.8884     16.2014
H      6.1309      3.7204      7.1466
H      5.4349     10.5639      9.1951
H      1.4907     18.4111      9.1497
C      4.4982     10.5216     17.3572
C     -2.8258     21.7268      4.9764
O      2.0739     21.4579      4.5817
C     -1.2919     21.4970      6.9169
C     -4.3806     20.9498     11.8724
C      7.7418      7.2650     12.7763
C      6.8372      6.4805     12.0941
H      5.3454      4.3421     14.5916
H      3.9897      8.8480     13.8278
H      1.5683     -0.8406     18.5298
H     -3.9242     19.5250      7.5131
H      2.0672     11.6973     13.0659
C      7.6395      2.5290      8.9274
H      0.9716      0.9410     14.5986
C      7.2183      6.3411     10.7166
C      7.6764      5.7691     15.9451
H      8.1997      7.5713     15.0107
C     -1.1954     19.8662      5.0985
H      3.4575      8.2959     21.1915
H      3.5869     -0.1372     16.1089
H      1.9554      7.1041     13.2264
C     -3.4489     24.9338      7.1113
C      6.3041      4.8187      8.9606
C      3.1082      7.3500     17.8683
C      4.9992      5.1635     12.4373
C      4.7030      8.8874     14.7483
H     -3.4607     20.7985      5.0950
H      8.0927      7.7501     16.5333
H     -9.7976     27.3445     10.6580
H      4.3272     12.7429     17.3732
C     -0.3028     16.6771      8.5894
H      8.5537      8.9746     14.0952
C      0.2195      9.0384     12.1482
C      1.7151     15.0030      7.8641
H     -2.0230     21.3510      9.8208
C     -0.8793      6.3677     14.2633
H      5.8474      7.1820     12.0070
C     -2.8229      7.2098     12.6095
O      2.3722     11.1373     13.6905
C      6.5786      8.2600      8.9218
C      4.0264      8.1425     20.2864
C     -9.5002     27.6263      9.5294
C      2.8400      1.6336     17.9852
H     -2.9047     11.4089     14.4439
H      5.5897     12.1348      6.8439
H    -10.6180     30.0092      9.5988
C      4.1149      3.1584     16.0724
H     -3.5921     21.2488      6.9529
C     -2.5602      8.2295     13.5773
C     -1.6923      7.2515     11.5299
H     -1.9285     23.7738      6.2756
C     -7.7377     27.8664      5.0763
H      3.9245     -0.1710     18.7228
C      2.1362     12.7262      8.6969
C      4.4306     11.0938      8.5964
C     -2.4122     18.2288      3.7289
C      3.9225      9.6030     19.6122
C      2.6621      3.5552     15.4780
C      4.8705      6.7310      9.8857
H      2.8992      8.6865     13.4606
H     -3.4274     18.5421      3.5487
H      1.6017      5.1513     12.0056
O      5.8577      6.8502     19.5012
C      0.7460     21.0272      4.4752
C     -2.7912     21.7142      3.2831
C     -2.3242     20.3500      2.7000
H      6.1996      7.3800      8.3892
H      8.6162      3.0449     15.9326
C     -2.5486     21.7563      7.6935
H      2.5566      3.8345     17.5898
H      0.6533     10.0218     10.3116
H      5.1370      3.7216     13.5018
H     -0.0851     17.6617      8.4679
C      3.1997      1.3401     14.8950
C     -0.4785     21.5342      1.8906
O      4.3453      3.9478     13.0385
O      7.4128      4.0850     10.8911
C     -0.1751      2.8888     14.2158
C      0.0711     16.8206      3.7362
C      6.9527     10.8025      7.6138
H     -3.1874     22.9127      7.5462
H      2.9926      9.6897     19.0004
H     -0.7762     22.6139      3.8674
H     -0.2526      7.8196     10.3707
O      0.4492     22.8334      5.7527
C      5.8773     11.5478      7.9540
C      0.7193     19.9751      6.6259
C      1.9371      8.0243     13.8388
C      0.5590     20.4909      2.9397
H     -4.8964     25.5141      9.7617
C      2.5122      0.5029     17.0925
C      0.0269     15.4757      7.8495
C     -2.8779     24.1987      6.0615
C     -2.6835     16.3943      5.3859
C      4.7970     11.8922     17.7643
C     -9.8659     30.0787     10.0329
C      0.9996      1.8950     14.0732
C     -1.5694      7.5165     14.4452
C      3.6838     12.3922      8.7250
N      1.8963     -0.6769     17.4982
C      4.2457      0.9259     13.9141
O      4.1197      5.7453     15.1264
C      9.7931      6.0826     13.5760
H      5.7636      9.3805     18.6565
H     -0.6937     14.7290      7.6330
C     -2.1824     17.1575      2.7445
C     -2.9335     21.3694      9.1369
H      8.4950      2.4604      9.6386
H      1.4288     14.5042      6.9695
H      7.2340      3.2544     11.5133
C     -2.3572      9.6462     13.3130
H      4.1437      7.1058      8.8799
H      2.6048     19.6364      9.2911
H     -0.6332     22.6294      2.3227
H      1.5639     10.6080     11.6549
H      4.0662     -0.1264     13.1405
H     -0.2243     16.7346      9.5664
C      1.8665      7.4049     15.2305
H      4.2478      2.0317     13.3182
C      0.8424      9.8758     11.3712
H      2.5699     10.4257     16.9718
C      4.2566      8.2435     17.3071
C      7.7091      7.1673     15.8258
C      7.9680      9.6171     13.7662
C      6.0321      8.1665     14.4964
C      4.3307      6.0348     19.2693
C      1.7338      4.9089     15.3064
C      6.3013      5.5280     13.0355
C      5.6361      7.5909     16.9082
C      8.4521      6.1379     13.4106
C      4.3454      5.0816      7.4255
C      1.1552      5.1765     13.9385
H     -2.3188     19.4560      6.8674
C      6.5423      7.0987     18.0834
H     -0.4871     14.6773      6.2199
H     -2.8004     16.4751      2.1173
H      0.7848      1.8026     13.1093
C      7.3070      5.2160     13.6998
H     -1.0069     16.8313      3.9108
O      7.5581      7.8629     18.4474
H     -4.6643     22.1041     12.0264
H      8.2227     10.2134     12.9645
H      0.3871     15.7830      3.1570
H     -1.4832     11.5225     14.5672
H      2.8987      5.2256     13.1083
H      5.3213      4.9419     17.3198
C     -0.7791      8.1002     11.2333
C      2.6863      6.1447     15.4999
H      0.8622     19.6416      8.7710
C     -2.3394     17.6039      5.1386
C      0.5333     19.7754      5.2026
H      5.1494      8.2174     20.5000
H      1.5550      2.0419     17.9012
C      1.4796     18.6257      4.4416
H      1.5361     11.7321      8.9587
H      2.2125     -0.3460     15.2701
H      3.5767     11.0657     15.6316
C     -4.4815     19.4770      8.5937
C     -8.5158     26.7307      8.3147
C      6.2493      7.4852     15.8536
C     -3.5256     22.9840      5.4993
C     -0.2723     19.1677      2.8049
C     -1.4847     19.5066      3.6222
H      2.0883      3.4224     12.8014
H      5.7000      4.7965     11.7483
H     -2.6678     15.9490      6.5849
C      1.9922     14.2089      9.0621
H     -0.7320     22.4121      6.9346
C      0.6313     18.1135      3.3396
C      5.2629      3.4592     15.5313
H      0.9500     17.5822      7.4081
H      7.6437      8.7762      7.5977
C      7.0010      3.7063      9.6930
H     -2.8736     25.3073      8.0433
H      6.4857     10.1788      6.8935
C      1.8323     19.4172      8.6432
C     -1.6244     18.8163      6.0532
C      2.8131      0.3522     15.7397
C      1.3294     17.5804      5.4061
C      2.0201     19.3928      7.2734
C      2.0455      4.5354     12.7808
H     -1.3907     16.8921      2.1161
H      3.6991      1.8976     15.6058
H     -3.2594     22.3015      9.5709
H      5.0836      1.1445     14.6262
H     -5.2828     18.4965      8.2232
H     -6.9913     26.6801      3.5701
C     -0.4054     22.1737      4.7694
C     -4.0580     20.5194      9.2482
H      4.7039      6.2648     12.5344
H     -3.8608     21.8961      2.9896
C     -4.7177     24.5192      7.7108
H     -2.1244     16.4183      3.3919
H     -4.4826     22.4946      5.9423
C     -0.2061     20.3878      7.3644
C      0.5041     16.3927      5.1689
O      8.1179      5.2697     17.3910
C     -1.5407     21.4095      5.4170
C     -6.7264     26.7610      7.0521
C     -7.7434     27.6034      6.4150
C      3.3879      0.7851     19.1801
H      8.0884      6.9498     18.3263
H     -5.7826     27.4492      6.8899
H      1.4887     22.7425      6.0077
H      5.5916     12.1818     18.5610
C      1.9371     17.8059      6.7176
H      0.3754      3.7807     13.9759
C      4.2875      5.1309     17.6961
C     -9.4369     29.0186      9.1100
H      7.2266     10.1600     14.3158
C     -4.6142     20.1934     10.6387
H     -9.6907     29.9558     11.0549
H     -2.3312      6.5730     10.8254
C      3.8516      2.6248     17.4636
C      4.7339      9.3609     18.3088
C     -6.5530     25.4328      8.7863
C      7.3947      9.4083      8.4023
C      5.4817      4.3263      8.0114
C     -7.2176     26.7703      8.4452
H     -3.0072     10.2850     12.7192
H      9.8054      5.0255     13.0298
C      1.3572     10.3234     14.3914
H     -9.3493     30.9929      9.6541
H     -2.1758     22.6840      2.8541
