265

C     19.8274      8.9929     14.0086
C      4.2304      1.3514      7.0254
C      2.1225      2.9510      1.1676
C      7.0027      4.9270      2.9691
H     -2.6640      3.4932      3.1982
C      6.9947      3.6213      3.3192
C      3.5694      3.7225      5.4591
C     -6.4535      9.7190     10.3112
C     16.1195      7.0999     19.5723
C      5.9013      1.5319      3.6373
C     -7.0860      8.8559      9.4280
C     13.7546      8.7328     13.4441
N     -0.4213      3.0826      6.4945
C      0.3119      5.7981      0.6661
O     -1.3752      2.4198      1.8267
C      3.6468      3.7066      6.8370
C     15.7209      6.1062     17.3877
C     16.4686     10.5075     16.8856
H    -11.5359     13.9970      9.9552
H     -3.2172      3.3880      4.2467
H     17.7242      6.0967     15.6246
H     -7.3560     11.3845     11.7808
C     17.0093      9.0508     16.3500
H     -9.2080      8.3212     10.6626
H     -6.3897     10.7328      9.6184
H      7.5409      2.8975      3.8391
H     12.7753      7.5447     10.3231
H     -1.0670      5.1849      6.2858
C      3.1848      2.5776      7.6553
H     -1.9830      9.8373     -1.1373
H      6.9127      1.1280      4.0919
O     15.0724     10.5460     14.8316
C     -4.7878     12.5802      8.8149
C      6.6892      6.3560      9.6883
H      2.4968     -0.1525      6.4626
H      2.3929      6.2597      9.7959
C      5.9560      2.6435      2.7377
H      6.6493      4.6833      7.8138
H     -7.8274      7.4000     10.2288
C     17.7107     10.7264     17.7727
C     -2.9450      8.7911      5.2365
O      2.0208      8.5689      5.0150
C     -1.6393      8.2188      7.1014
C      8.8026      8.1282     12.1778
C     20.5946      7.8400     13.2318
C      6.5839      7.2367     -0.6067
H      4.4138      4.0503      1.4782
H     17.8112     10.1220     14.8993
H      1.1349     -0.6740      2.9333
H     -5.6003      6.6984      7.8227
H     15.0705     11.5531     14.4726
C      7.0523      6.8197     11.0721
C      7.7492      5.8412      3.7626
H     21.7723      9.3161     14.9847
C     -1.3550      6.8273      5.0767
H     15.5422      8.5189     20.8073
H      4.1450      0.4283      2.3814
H     -7.7560     11.1192      9.8901
H     14.9884      6.6843     13.4568
C     -2.9057     11.6766      7.7155
C      5.5140      5.5906      9.3641
C     16.1540      7.5597     18.1151
C      4.9094      5.7034      0.3784
C     17.9274      9.2888     15.3634
H     -3.8265      8.1121      5.7199
H      8.2382      7.7098      3.4609
H     -9.2439     14.4094     10.4350
H     -6.3982     12.4763      9.7696
H     18.2461     12.2417     16.6347
C      0.5903      3.9333      8.6143
C     13.2306      8.2422     12.1105
C      1.5770      1.7798      7.7279
C     -0.7316      6.1731      1.6199
H      5.6116      7.5719     -0.7736
H     -2.0405      2.1067      4.0219
H     -8.2279      9.8751     11.6879
C     10.1332      7.3771     12.8124
O     14.4354     10.7202     12.6318
C     -6.9934      9.1876      8.1493
C     16.3460      8.4297     20.2089
C     -9.4656     14.5101      9.4464
C      2.8790      1.4599      4.6533
H     -1.1219     10.2035      0.1979
H     -6.8922     12.7359      6.9405
H    -10.0491     16.1414     10.8005
C      3.6925      3.2033      3.2157
H     -4.1630      9.7137      6.8172
C     -2.0530      8.3044      0.5319
C     11.1070      6.9316     11.5549
H     -1.7365     10.3214      7.5556
C      5.3237      2.1583      4.8064
H      3.7066     -0.6715      5.5072
H     -4.2477     13.4662      8.8144
C    -10.5104     12.5422      8.7982
C     -8.1659     11.3449      7.9999
C     -2.2211      5.2086      3.3595
C     16.8018      9.5943     19.8009
C      2.2691      3.3343      2.6380
C     -8.3935      8.0217      9.7739
H     15.7108      8.3604     13.7519
H     -3.9403      4.6571      2.5456
H      1.7637      3.7011     -0.7928
O      5.4642      6.4137      6.5542
C      0.5217      8.3163      4.5793
H     -8.4425     11.3828      6.8746
C     -2.6171      8.8715      3.4909
C     -2.0752      7.7710      2.8605
H     -7.3398      8.4506      7.4799
C     -2.7906      7.4783      7.5320
H      1.6474      3.0522      4.7850
H     14.6142      7.6096     11.0511
H      6.5139      2.2311      2.0545
H      1.4128      4.1664      9.2436
C      3.0897      1.9724      1.1274
C     -0.0546      8.6136      1.8589
C     -0.2547      3.0644      1.8357
C     -0.0239      3.9636      4.0325
C     -5.6772     10.9339      7.0049
H      1.6140     -0.7579      4.5833
H     -3.9796      7.6115      7.2954
H     16.0175     10.4335     20.0326
H     -0.1974      6.1870     -0.0660
O      0.2268      9.6207      6.2299
C     -6.8357     11.8609      7.6827
C      0.4671      7.1266      6.8900
C     14.9354      7.6932     13.9532
H     15.9463      8.2531     15.6039
C      0.5216      7.8352      3.0310
H     -4.5573     11.9490      9.7970
C      2.2923      0.8296      3.4485
C      0.3029      2.7086      7.6370
C     -2.2277     10.8620      6.7849
C     -2.3254      2.9850      4.8453
C     18.5136     11.8704     17.6659
C    -10.1112     16.6449      9.8987
C      0.7453      2.4250      1.0657
C     -1.2905      7.6996      1.6559
C     -9.1348     12.4414      8.5696
N      1.8370     -0.4851      3.6139
H      4.4057      0.9630     -0.7059
C      3.3739      1.2148     -0.2591
O     16.8289      5.9956     15.1096
C      9.4901      6.3276      0.7268
H     18.8007      9.3527     19.0381
C     -2.8795      4.5140      2.4908
C     -2.7068      7.2719      8.9732
H      1.6052      0.8247      7.1177
H      7.6896      4.4350      0.9846
H     -5.9205      8.7785      6.5293
C     -1.5769      9.4446     -0.1308
H      4.8736      6.4015      8.7338
H      1.4162      7.8368      8.6577
H     -1.1065      9.9981      4.7653
H     14.7065      9.3263     11.5044
H      3.0806      2.0159     -1.0700
H     -0.0343      3.8350      9.6358
C     14.9517      7.4161     15.3747
H      4.4965      5.2418      9.9720
C     14.1286      8.5075     11.1287
C     -7.6692     10.6217     10.9973
H     15.7365     10.1223     17.4220
C      4.4011      8.0186      4.4066
C      7.9298      7.0038      2.8166
C     21.0655      9.9188     14.5122
C     19.0683      8.4895     15.2199
C      4.2289      5.7685      6.3928
C      1.7717      4.9731      2.4360
C      6.2205      6.1513      0.5736
C      5.5249      7.1205      4.1069
C      8.0627      6.6464      1.3388
C      4.2196      4.9364      7.5586
C      1.4954      5.2317      0.8719
H     -2.7200      5.3116      6.0195
C      6.0532      6.8359      5.2924
H      9.1791      5.6203     -0.2962
H      0.6199      1.2875      1.2819
C      7.1197      5.3515      1.5372
H     -0.0992      3.1254      3.3046
H     -2.3854      6.2832      9.0688
O      7.4473      6.8575      5.4958
H      8.7538      9.1362     11.4792
H      1.4063      2.7471      2.9397
H      3.2251      4.3075     -0.0229
H      4.4453      5.4476      4.0571
C     12.3213      7.5221     11.5446
C     15.6253      6.0705     15.7420
H      1.0179      6.2393      8.7571
C     -1.6303      4.4985      4.3975
C      0.2504      7.1273      5.3704
H     -9.5189      8.1211      9.4515
H      2.0530      1.0661      5.5433
C      1.1743      5.8575      4.9143
H      2.4254     -0.0241      1.2784
H     17.1581     11.2538     16.0899
C     -5.1657      6.6278      8.8473
C     -8.5476     13.7950      8.3593
C      6.5857      7.5429      2.9711
C     -3.2147     10.0636      5.9554
C     -0.2907      6.1720      3.0831
C     -1.7106      6.6094      3.6668
H      3.9671      6.5260      0.0300
H     -2.3117      3.0888      5.9650
C    -10.8820     14.0076      8.8817
C      0.6198      5.2063      3.5691
C      4.7055      3.3815      2.3704
H      2.3502      4.3056      7.5263
H     -4.2839      8.3028      9.1588
H     -3.1430     12.2943      8.6893
H     -6.2291     11.4892      6.4054
C      1.8114      6.8700      8.7871
C     -1.7693      5.4222      5.5410
C      2.9365      0.8836      2.1702
C      1.1850      4.7315      5.8561
C      1.9412      6.5558      7.3822
C      2.2704      4.1379      0.1972
H     -1.5536      5.4906      1.4568
H      4.1819      2.5549      1.5942
H      3.1155      0.2776     -0.1871
H     -1.2926     11.4000      6.3910
H      5.0023      1.0449      3.3029
C     -0.5077      9.0306      5.1482
C     -4.1747      7.3542      9.5900
H      4.7059      4.5670      0.5501
H     21.5732      9.8303     13.5473
C     -4.3553     11.7530      7.6234
H     10.0216      5.6651      1.3527
H     -3.3274     10.7763      5.0883
H     -6.6251     14.8408      9.1658
C     -0.3094      7.8424      7.7597
C      0.7609      3.4990      5.2511
O      8.9497      5.5383      4.5024
C     -1.5628      8.1331      5.6801
C     -6.4346     14.8072      7.0842
C      5.2739      1.8881      6.1662
C      3.3165      0.4000      5.7833
H      9.1342      6.4260      4.6430
H     -6.5122     15.8969      7.0722
H      5.3620      3.5296      8.7186
H     -4.8685      9.3486      8.2392
H      1.1616      9.0418      6.0092
H     18.2542     12.4383     18.5482
H    -11.3725     12.3618      8.3178
C      1.6641      5.1254      7.0373
H     -0.3596      4.2071      1.5391
C      3.8611      5.0955      5.0699
C     -9.4601     15.8364      9.0561
H     20.6889     10.5625     15.4966
C      8.2420      7.5148     10.8843
H      3.6911      5.2622      8.3934
H     10.0832      7.1577     10.9837
H     -5.5372     14.8146      6.3033
C      3.8366      2.5440      4.6463
C     17.8315      9.7466     18.7632
C     -6.2830     12.8208      8.9264
C     -5.6498      9.4884      7.4571
C      5.5273      4.5570      8.1745
C     -6.9744     14.0615      8.4803
H     -0.0607      4.8545      8.4277
H     -2.0273      7.9651      9.4871
H      0.3433      2.4474     -0.1218
H     19.0764      9.6001     13.5880
H     -0.8338      2.1912      6.1944
C     14.4807      9.9821     13.5287
H    -10.2313     17.7903      9.7310
H     -2.3223      9.7435      3.3386
