259

C     20.1395     21.8352     13.9483
C      3.7889     14.6622      7.0478
C     15.4505      3.0420      1.1419
C      7.1828     17.7145      2.4616
H      9.4527      3.5032      3.1311
C      7.3143     16.5834      3.0959
C      3.5250     17.0408      5.3648
C      6.6582      9.7615     10.6799
C     16.1070     20.2121     19.4817
C      5.8179     14.8141      3.9311
C      5.9459      9.0536      9.6025
C     13.7766     21.4615     13.5374
N     12.7403      2.7936      6.1365
C     13.5536      6.1948      0.6049
O     11.5756      2.5698      1.5865
C      3.1995     16.9960      6.8317
C     15.6690     19.3695     17.3398
C     16.5782     23.3419     17.2291
H      1.0837     14.3427      9.8412
H      9.7336      3.4445      4.8550
H     17.4823     20.2702     14.9798
H      5.8146     11.6471     11.0343
C     17.2251     22.0305     16.5306
H      4.5137      8.9952      9.9111
H      7.4090     10.1684     10.1636
H     12.4757     19.5587     10.9143
H     12.1585      5.3544      6.7004
C      3.0441     15.7346      7.6648
H     10.2926      9.9261     -0.6886
H      6.2837     13.8700      4.1851
O     14.9271     23.6650     14.6035
C      8.0737     12.6332      8.5675
C      7.0338     18.8796      9.5515
H     15.8187      7.4514      9.0290
C      6.1455     15.6644      2.6651
H      6.6607     17.3116      7.4711
H      6.8273      9.0706     11.2484
H      5.3822     11.1078      9.0370
H      5.8201      7.2401      9.7944
C     17.6954     23.6279     18.0186
C     10.1379      8.6186      5.0292
O     14.9019      8.7630      4.9320
C     11.2423      7.7111      6.8861
C      8.6894     21.1038     12.1092
C     20.4047     20.5907     12.9714
C      6.3163     19.9845     -0.7534
H     17.8074      4.3112      1.6563
H     17.9838     23.2127     14.9612
H     14.9126     -0.9140      3.2622
H      7.6329      6.5469      7.5764
H     15.5853     23.9991     14.0297
C      7.0980     19.3482     11.0102
C      7.6360     18.7869      3.3194
H     21.7311     21.8877     15.4620
C     11.7891      6.5266      4.9099
H     15.1563     21.6627     20.2953
H     17.1704      0.4193      2.7137
H      4.7081     10.1450     11.3172
H     15.3553     20.0396     13.1669
C      9.7290     11.2723      7.6934
C      5.7105     18.3313      8.9262
C     16.1298     20.6695     17.7856
C      4.5173     18.7082      0.2383
C     17.7226     22.2291     15.1767
H      9.4036      7.6029      5.0110
H      8.4427     20.6727      3.1360
H      3.5818     14.4672     10.8258
H     17.7028     25.2645     16.8519
C      0.1890     16.7083      8.7361
C     13.1038     21.2728     12.1275
C      1.7215     14.7861      7.8616
C     12.3253      6.4684      1.4189
H      5.2963     20.4222     -1.4019
H     10.7635      2.1891      4.4730
H      5.8748     10.6717     12.4526
C      9.7456     20.4538     12.8374
O     13.7398     23.5378     12.7483
C      6.0658      8.9300      8.1566
C     16.2419     21.4113     20.3360
C      3.2924     14.5455      9.6483
C     15.5881      1.9151      4.4866
H     11.7916     10.1453      0.1282
H      6.0675     12.4986      6.5475
H      3.5194     17.1322     10.9600
C     16.8041      3.3602      3.1647
H      9.1138      9.6907      6.2401
C     10.6210      8.3960      0.5660
C     10.7840     20.0677     11.7769
H     11.4633      9.8930      7.3990
C      5.1714     15.1718      5.0387
H      4.2016     12.6791      5.7644
C      2.4980     12.5262      9.0666
C      4.8510     11.6310      8.1491
C     10.7596      5.1202      3.4481
C     16.5871     22.5725     19.7035
C     15.5648      3.7639      2.4902
C      5.2042      7.9856     10.1543
H     15.8755     21.6735     13.8221
H      9.1196      4.4503      1.7113
H     14.3053      3.4108     -0.2195
O      5.5446     19.6511      6.6577
C     13.6659      8.0099      4.3963
H      4.2252     10.4869      7.9146
C     10.6098      8.7809      3.7109
C     10.6775      7.7297      2.9421
H      5.7541      8.0196      7.8056
C     10.2146      7.0591      7.4764
H     14.1564     20.7514     10.1838
H      1.0733     16.4903      9.2969
C     16.4918      1.6853      1.1254
C     12.7604      8.5606      2.0369
C     12.7303      3.0899      1.6576
C     12.9234      3.9594      4.1555
C      7.2785     11.1439      7.0274
H     14.7500     -0.4569      4.8513
H      9.1185      6.8416      7.1074
H     15.9323     23.2824     19.4666
H     13.0927      6.0865     -0.4304
O     13.2995      9.7444      6.0089
C      6.2152     11.9263      7.5464
C     13.4465      7.1113      6.7070
C     15.1307     20.7494     13.9400
H     15.5999     21.4335     15.7280
C     13.6029      7.7295      2.9217
H      8.3870     11.9772      9.6913
C     15.5509      0.8580      3.5526
C      0.4570     15.3181      7.8760
C     10.7408     10.6550      6.7223
C     10.6202      3.1423      4.9161
C     18.1362     24.9098     17.8729
C      3.3335     17.0723      9.7853
C     13.9705      2.3985      1.3542
C     11.6228      7.7993      1.6198
C      3.7547     12.6379      8.3460
N     15.0709     -0.2783      4.0144
H     17.0003      2.1294     -0.4947
C     16.2938      1.3427     -0.3183
O     17.0391     19.3610     15.4597
C      9.3075     19.3700      0.8288
H     18.8532     21.9175     18.7508
C      9.9168      4.4422      2.5725
C     10.3227      7.3558      9.0548
H      1.7559     14.0046      6.9065
H      7.2191     17.4471      0.2935
H      7.8881      8.8302      6.4148
C     10.7329      9.6006      0.1987
H      5.5133     19.2173      8.5317
H     14.6497      8.4147      8.9932
H     12.3834      9.5744      4.2541
H     15.3029     21.3019     11.2846
H     15.2124      1.6490     -0.3585
H     -0.8088     16.4584      9.0394
C     15.0382     20.4867     15.3877
H      5.0805     17.8309      9.5014
C     14.2172     21.4414     11.1948
C      5.8120     10.6032     11.4095
H     15.8245     23.1872     17.7530
C      4.7000     21.0327      4.3883
C      7.7231     19.9157      2.5198
C     21.3145     22.2363     14.6774
C     19.0115     21.3302     14.8263
C      4.3135     19.1035      6.4355
C     14.8370      5.0361      2.6015
C      5.7614     18.8025      0.0154
C      5.9142     20.3530      4.2767
C      7.9086     19.4827      1.0115
C      4.2795     17.9641      7.3910
C     14.2071      5.1287      1.2020
H     10.5750      5.9063      6.4181
C      6.5506     20.0524      5.6675
H      9.4051     18.8096     -0.3028
H     14.3428      1.5102      2.0535
C      7.0733     18.1361      0.9700
H     12.8116      3.1114      3.3006
H     10.9191      6.6767      9.5969
O      7.8415     19.8785      5.9110
H      8.8269     22.1255     11.9774
H     15.1239      3.2039      3.2689
H     12.3990      9.2999      2.7045
H     15.6527      4.4457     -0.8039
H      4.5722     18.2015      4.3763
C     12.1168     20.3560     11.6176
C     15.7093     19.2686     15.8692
H     14.3550      6.5920      9.7369
C     11.4017      4.3005      4.5412
C     13.3539      6.8606      5.2150
H      4.5150      7.5487      9.5594
H     15.7267      1.0447      5.5417
C     14.3653      5.8402      4.7279
H     15.9597     24.0990     16.7375
H     12.7766      7.6523      8.6181
C      7.7712      6.5784      8.6390
C      4.2069     14.0109      8.5385
C      6.6016     20.6512      2.9821
C      9.8274      9.9755      5.5848
C     12.6878      6.2982      2.8461
C     11.4064      6.5204      3.5032
H      3.4314     18.7662     -0.3589
H     10.4038      3.1287      6.1121
C      2.0185     14.0162      9.1223
C     13.6188      5.2559      3.4280
C     17.9144      3.5405      2.4683
H     15.0556      4.6303      8.1047
H     10.2041     12.0067      8.4844
H      6.9569     11.1367      5.9670
C     14.7981      7.3397      8.8728
C     11.4874      5.3569      5.7692
C     16.2197      0.6365      2.2719
C     14.3985      4.7641      5.8885
C     14.6766      6.7300      7.4401
C     14.9913      4.2270      0.2408
H     11.4075      5.7495      1.1208
H     17.8314      1.6266      1.1938
H     16.2500      0.2459     -0.1353
H     11.5936     11.5838      6.2997
H      5.3797     14.0204      3.2749
C     12.5919      8.9439      5.0264
C      8.7234      7.6419      9.6125
H      4.0626     18.0871      1.1951
H     22.2037     22.3015     14.0823
C      8.4567     11.7234      7.4709
H     10.0778     19.4013      1.6019
H      9.3095     10.7144      4.7955
H      6.1809     14.2676      9.2970
C     12.5754      7.6086      7.4074
C     13.6360      3.6005      5.3403
O      8.5372     18.4241      4.3660
C     11.3097      7.8600      5.4668
C      6.4828     14.5163      7.1759
C      5.1377     14.8056      6.4045
C      3.2074     13.3092      6.4783
H      8.2180     18.9053      5.0900
H      7.1092     15.4180      6.9383
H      5.4808     16.0409      8.0357
H      7.7205      9.8427      8.4055
H     12.9472     10.5675      5.7987
H      1.7307     11.7781      8.8813
C     14.5034      5.3111      7.1705
H     12.8392      4.2869      1.8282
C      3.9147     18.4729      5.0642
C      3.2110     15.9128      9.1619
H     20.8387     23.2860     15.4210
C      8.1576     20.3107     10.9258
H      4.1426     18.4941      8.3093
H     10.5591     18.9533     11.6255
C     16.7832      2.8046      4.5089
C     17.8430     22.4870     18.9084
C      6.6081     12.7869      8.7946
C      7.2764      9.3115      7.4092
C      5.7246     17.2030      7.9544
C      5.7554     13.8593      8.4342
H     -0.2003     17.6934      8.1164
H     11.0350      8.2928      9.0720
H     14.0420      1.8205      0.3028
H     19.6040     22.5127     13.1816
H     12.0157      2.3188      5.6036
C     14.0942     22.8631     13.6030
H      2.9473     17.9770      9.0439
H     10.8127      9.6427      3.3883
