267

C     32.7536     -3.6467     13.8317
C      4.0526      1.7027      7.0416
C      2.2178      3.0014      1.2070
C      7.2369      4.8933      2.3790
H      9.4933     -9.3774      2.7405
C      7.4538      3.5423      2.7484
C     15.9217     -8.9622      5.4967
C      6.6476     -2.9650     10.1182
C     28.7936     -5.7727     19.3652
C      5.8206      1.9088      3.7921
C      6.3848     -4.2974      9.3541
C     26.7689     -4.0372     13.9983
N     -0.2728      3.1484      6.3751
C      0.7000      6.1905      0.7770
O     -1.7565      2.0404      2.2946
C     16.1817     -9.0082      7.0159
C     28.6664     -6.6741     17.3961
C     29.4385     -2.4145     16.7412
H      1.1053      0.5695      9.9292
H      9.2218     -9.2510      5.2540
H     29.9078     -5.8629     16.3887
H      6.4096     -1.1075     11.0457
C     29.7955     -3.7664     16.1727
H      7.3802     -2.4185      9.6610
H      7.6627      3.4364      3.9263
H     25.8150     -5.4938     10.8718
H     10.9027     -8.1043      6.7910
C      3.0791      2.6910      7.6565
H     -2.4799     10.1660     -0.3342
H      7.0698      1.5035      4.0331
O     27.3729     -2.4505     15.2784
C      8.1986     -0.3180      8.8461
C     19.9508     -6.8701      9.7746
H      2.8479      6.0508      8.5926
C      6.1388      2.9461      2.8772
H     19.0347     -7.1832      7.2637
H      7.2023     -3.4747     11.1224
H      4.8502     -2.9110      8.6635
H      5.5916     -5.3406     10.7306
C     30.6052     -2.1491     17.7315
C     10.1105     -4.3203      4.9419
O      1.7770      8.3527      4.9828
C     -1.5035      7.9515      7.1373
C     21.7298     -4.9112     12.0062
C     33.4652     -4.9205     13.0868
C      6.3979      7.3212     -0.7721
H      4.9169      4.2008      1.6400
H     29.9044     -2.6903     14.6569
H      1.5235     -0.3042      2.6453
H     -4.7437      6.1831      7.9698
C     20.1496     -6.4686     11.1104
C      7.9345      5.8700      3.1835
H     34.6612     -3.6442     15.1222
C     11.6563     -6.2784      5.1911
H     28.3381     -3.9356     20.7105
H      4.7289      0.6926      1.7964
H      4.8244     -2.0474     10.1492
H     28.1857     -5.6203     13.3287
C      9.9662     -0.9040      7.3182
C     18.7706     -7.1686      9.1123
C     28.7139     -5.3069     17.9894
C      4.5372      6.5000      0.7439
C     30.5218     -3.6203     14.8879
H      9.2675     -4.7928      5.3821
H      8.6918      7.9243      2.9843
H      3.7002      0.7162     10.2907
H      6.1490     -0.2273      9.4881
H     30.4348     -0.1570     17.1860
C      0.2177      3.5705      9.0413
C     26.5124     -4.5741     12.4368
C      1.7887      2.0872      7.7638
C     -0.5898      6.2441      1.5557
H      6.0075      8.1692     -1.2274
H      9.5183    -10.6889      4.1353
H      5.9251      4.4133      4.0439
H      5.1169     -2.2631     11.8084
C     22.8707     -5.2727     12.8787
O     27.0255     -1.7969     13.0187
C      6.4303     -4.2779      7.9993
C     29.0780     -4.4530     19.9287
C      3.2536      1.3389      9.4577
C      3.1138      1.5692      4.6612
H     -1.2648     10.1041      1.2299
H      5.8937     -0.7151      7.0095
C      3.7752      3.4325      3.2037
H      8.7379     -2.9212      5.8842
C     -2.1790      8.5613      0.6874
C     24.1516     -5.5227     11.9574
H     10.9446     -2.9256      6.9934
C      5.2325      2.7201      4.8515
H     30.9173     -0.3494     18.9427
H      8.7328      0.4655      8.5851
C      2.3368     -0.8285      8.9966
C      4.9675     -1.7067      8.4510
C     10.5259     -7.7172      3.5226
C     29.2839     -3.1668     19.1823
C      2.3885      3.6450      2.7721
C      5.0346     -4.8045      9.8392
H      2.1412     -1.2676     10.0616
H     29.1374     -4.5047     14.2951
H      9.7326     -7.8901      1.4598
H      2.8992      5.1781     -0.3545
O      5.2735      6.6894      6.3829
C      0.5717      8.0669      4.5806
H     29.3426     -2.3239     19.9980
C     10.2107     -4.2421      3.4602
C     10.7613     -5.3436      2.8244
H      5.5736     -3.8719      7.4532
C     -2.6980      7.7731      7.7520
H      0.5530      2.2470      4.7367
H     27.9383     -5.2142     10.8192
H      0.9880      3.9784      9.7869
C      3.4687      1.9224      0.9036
C     -0.1401      8.5361      1.9913
C     -0.6693      2.7057      2.0631
C     -0.3035      3.9226      4.1824
C      7.5604     -1.9643      7.1218
H      1.6320     -0.4573      4.2811
H     -3.3052      8.1727      6.9476
H     28.7117     -3.4356     18.4479
H      0.1060      6.3270     -0.1177
O      0.2886      9.6689      6.3376
C      6.3051     -1.4200      7.7255
C      0.6665      6.9060      6.7051
C     28.0586     -4.7135     14.2412
H     27.8601     -4.1508     16.2432
C      0.6332      7.5338      3.1313
H      8.6554     -1.0422      9.4440
C      3.0562      0.9372      3.3298
C      0.3485      2.5590      7.8691
C     10.8023     -2.0702      6.5379
C      9.9872     -9.6598      4.8283
C     31.1812     -0.7327     17.9243
C      2.9482      3.8972      9.9409
C      0.5859      2.3596      1.3692
C     -1.3680      7.4845      1.6125
C      3.7435     -0.7949      8.3202
N      2.0135      0.0519      3.5464
H      3.5551      1.9952     -1.2851
C      3.1304      1.4047     -0.3817
O     30.0902     -6.5147     15.7459
C      9.5028      6.5410      0.6955
H     31.3933     -3.9499     18.8466
H     -0.0017      1.6149      8.2513
C      9.8249     -8.1970      2.4773
C     -3.0082      7.8658      9.1210
H      1.9555      1.4113      6.8489
H      7.3334      4.7620      0.3119
H      7.2768     -4.0040      6.2211
C     -1.6145      9.8041      0.3293
H      4.3941     -5.4668      9.1356
H      2.1079      7.9207      8.5936
H     -0.5921      9.5702      4.5975
H     28.6374     -4.7260     12.4084
H      2.1847      0.9819     -0.8368
H     -0.4793      3.1018      9.6233
C     27.9759     -5.2127     15.5551
H     17.7565     -6.9208      9.5533
C     27.7248     -4.6477     11.7891
C      5.7437     -1.9886     10.8871
H      2.9316      3.5516     11.2370
H     28.5198     -2.6116     17.6226
C      4.3424      8.2932      4.5556
C      7.7464      7.2552      2.6653
C     33.8201     -2.9388     14.7362
C     31.7442     -4.2693     14.7535
C      4.1061      6.0077      6.3444
C      1.9164      5.0294      2.4999
C      5.7670      6.4404      0.1595
C      5.5327      7.5164      4.1235
C      8.1098      6.7478      1.0339
C     17.2376     -8.1454      7.5020
C      1.6066      5.2838      1.0470
H      9.6671     -6.8387      5.8959
C      6.1773      6.7842      5.1634
H      9.6438      5.5699     -0.0631
H      0.8159      1.3645      1.0486
C      7.1828      5.6478      0.9052
H     -0.3740      3.1880      3.3623
H     -2.3158      7.8157      9.6950
O      7.2768      6.7574      5.7894
H     21.8711     -3.8739     11.5215
H      1.5255      3.2598      3.5131
H     -0.3248      9.5020      2.5981
H      3.3797      4.3737      0.7143
H      4.4773      5.1767      4.5297
C     25.2845     -4.8399     11.6690
C     28.5375     -6.5477     15.9468
C     10.9308     -8.4542      4.7171
C     13.1989     -6.2440      5.2262
H      4.1553     -4.6299     10.3434
H      3.3771     -0.2846      5.9209
C     14.1267     -7.3517      4.7267
H     29.0364     -1.8031     16.0354
H     -0.7198      6.4879      8.5439
C     -4.7970      6.3569      8.9690
C      4.1427      0.6753      8.2296
O      5.9797      3.9848      4.8394
C      6.2911      7.6467      2.8598
C      9.6731     -2.8321      5.5924
C     -0.3168      6.2412      3.0217
C     11.3057     -6.1882      3.7891
H     29.9666     -4.6295     20.7025
H      4.0185      7.2079      0.3215
H     10.5033    -10.3538      5.8472
C      1.8899      0.9283      8.8969
C      0.6279      5.0767      3.5545
C      4.9158      3.7238      2.7038
H      0.9128      4.3726      7.4835
H      7.3234     -4.8384     10.0049
H      8.2372      4.7447      4.7576
H     10.5821     -0.3022      7.8825
H      7.5940     -2.0223      6.0629
C      1.9514      6.6876      8.5866
C     10.8182     -7.5365      5.7612
C      3.5878      0.9829      1.9952
C     14.5626     -8.5669      5.6639
C      1.8723      6.3396      7.2272
C      2.4967      4.2686      0.3756
H     -0.8927      5.2104      0.9414
H      4.3276      2.7951      0.9311
H      4.0227      0.8474     -0.7943
H     11.5290     -1.2702      5.7162
H      4.8910      1.6067      3.6700
C     -0.4536      8.8984      5.2275
C     -4.0602      7.1772      9.5350
H      4.2641      5.2866      0.9918
H     34.3861     -2.3029     14.0546
C      8.6987     -1.1946      7.5828
H     10.1017      6.8279      1.6023
H      9.3091     -2.1972      4.7793
H      5.8011      1.2186      9.6337
C     -0.5541      7.0042      7.4688
C      0.6332      3.3599      5.3271
O      8.5132      5.6851      4.2928
C     -1.6665      8.0149      5.6161
C      6.2798      1.6293      7.2307
C      5.3244      2.0045      6.3284
C      3.2043      0.9700      5.7957
H      6.4697     -5.3703      7.3600
H     19.0423     -8.9718      7.9147
H      8.6047     -3.6423      7.4924
H      1.1263      8.8954      6.5030
H      1.3989     -1.5728      8.7845
C      1.9556      4.7955      7.0661
H     -0.7189      3.7446      1.9898
C      3.6511      5.2874      5.1000
C      3.2436      2.7908      9.2482
H     33.5482     -1.9988     15.1938
C     21.3152     -5.8031     11.0581
H     16.6062     -8.0671      8.3702
H     24.1166     -6.3126     11.2987
H      7.4314      1.4318      7.0481
C      3.7134      3.0415      4.6325
C     30.3976     -3.3335     18.4654
C      6.6495     -0.2705      8.5426
C      7.5311     -3.5421      7.3118
C     18.7213     -7.9288      7.9115
C      5.6919      1.1422      8.4309
H      0.1498      4.6776      8.5698
H     -3.1179      9.1288      9.1988
H      0.2407      3.1041      0.4437
H     32.3435     -2.9742     13.0575
H     -1.2144      3.4378      6.2982
C     27.1129     -2.7208     14.0810
H      2.8111      5.2268      9.6915
H      9.9271     -3.2705      2.7971
