260

C      7.0147      8.3951      0.9768
N     -2.0957     10.6508      1.4639
C      3.6983      1.7867      7.1205
C      2.2500      2.3754      1.8155
C      7.4520      4.9238      2.2422
H     -2.9811      6.7979      1.9402
C      7.5067      3.6910      2.7450
C      3.3646      3.9341      5.0677
C      3.4442      7.0410      6.5386
C      6.1488      1.9377      4.0044
C     -7.3805      8.0812      9.9530
C      0.6635      8.8682      0.7110
N     -0.3296      2.7091      6.1801
C      0.5543      6.0406      0.5550
O     -1.2435      2.3483      1.0241
C      3.1899      4.0663      6.6553
H      0.4870      6.5773     -0.4184
C      2.8399      6.1622      4.2083
C      3.3216     10.4055      3.5323
H      1.2730      1.4799      9.8275
H     -3.4069      2.9802      5.0981
C      3.8965      9.0954      3.0882
H     -8.2807      7.3181     10.9465
H     -7.3641      8.4519     10.8839
H     -0.6370      5.2438      6.5444
H     -5.3404      2.5572      7.8346
C      2.8868      2.9299      7.4601
H      7.0128      1.4542      4.6017
O      0.9737     10.7379      2.4718
C     -5.0849     12.5852      8.6027
C     -6.8582      5.7673      9.8600
H      2.5226     -0.0062      7.1272
H     -9.1483      5.3263      8.2135
C      6.4428      3.1336      3.1410
H     -7.5122      3.2880      7.5672
H      2.3154      6.0680      9.1838
C      4.3848     10.6591      4.4631
C     -2.9318      8.6816      4.8726
O      2.1502      8.5896      4.8819
C     -1.5658      8.6170      7.0862
C     -4.3940      7.8200     11.7824
C      7.6743      7.5252      0.0396
C     -6.3679      6.8008     12.2476
H      5.0705      4.3073      1.9190
H      4.6305      9.9111      0.9439
H      1.2597     -0.3130      5.4683
H     -4.8478      6.6871      7.3965
H      2.0651     11.5660     -0.0186
C     -5.5921      2.5982      8.9940
H      0.3755      0.8442      1.7989
C     -5.8540      6.3584     10.6956
C      7.8579      5.9499      3.0095
H      8.1387      7.8102      2.0117
C     -0.9955      7.0174      5.1779
H      3.3407      7.9474      8.2319
H      3.4061     -0.9991      2.7826
H      2.0512      7.4368     -0.0911
C     -3.4207     11.4819      7.3508
C     -6.7865      4.7731      8.9300
C      3.1191      7.4623      5.0260
C     -7.7612      4.9869     12.4826
C      4.8658      9.4585      2.0622
H     -3.2999      7.8287      5.0418
H      8.2236      7.4982      3.8250
H      3.0964      1.6408     10.5965
H      4.8304     12.7316      4.1929
C     -0.6035      3.8540      8.5298
H      8.7618      9.0968      1.1359
C     -0.0103      9.0692     -0.5852
C      1.4891      2.0089      7.6526
H     -1.5361      7.9401      9.7375
C     -0.4783      6.5630      1.3047
H     -7.4640      7.2895     12.4647
C     -2.5205      7.3635     -0.4091
O      2.2448     10.9488      0.6639
C     -6.5529      8.3017      8.8828
C      3.7436      8.2083      7.2985
C      3.2708      1.7432      9.5315
C      2.7979      1.4501      4.9052
H     -2.4658     11.5571      1.6537
H     -6.9809     12.0030      6.9425
H      1.8600      4.5057      9.9303
C      4.0299      3.2199      3.1678
H     -3.6145      7.7256      7.4228
C     -2.0675      8.3582      0.5911
C     -1.6570      7.2566     -1.4915
H     -1.7655     10.7660      5.6559
C      5.1253      2.1576      5.0179
C    -10.6248     12.8215      8.9248
C     -8.4495     11.3462      8.6239
C     -2.3583      5.3523      3.8702
C      3.7079      9.7395      6.6005
C      2.7258      3.5178      2.4408
C     -7.9202      6.7638      9.9962
H     -3.3082      6.0759      4.3246
H      0.9451      4.7746     -0.8126
O      5.8185      6.5227      6.4591
C      0.8968      8.1489      4.4504
C     -2.7235      8.8594      3.5326
C     -2.0869      7.3912      2.7519
H     -6.9522      7.5844      8.2254
H      8.4771      3.3167      2.9912
C     -2.8828      8.7641      7.9353
H      2.4747      3.8010      4.6063
H     -0.1764     10.3505     -2.5047
H     -8.1016      3.1033     13.6893
H      0.3401      4.6002      8.3839
C      3.3816      1.2722      1.9865
C     -0.1374      8.5250      2.0886
O     -8.6623      3.8632     13.2215
O     -5.7301      3.9844     11.0000
C     -0.2129      2.7609      1.3311
C      0.1090      3.7138      3.5469
C     -5.8140     10.5284      7.5935
H     -3.0420      9.8307      8.1205
H      2.7205      9.7483      6.2930
H     -0.4240      9.9780      4.1609
H     -0.1211      7.8837     -2.4621
O      0.6352      9.5459      6.1019
C     -7.0089     11.4360      8.0269
C      0.5945      7.2812      6.6283
C      2.0879      8.0971      0.7260
H      2.9665      8.2133      2.8213
C      0.8236      7.6023      2.9592
H     -4.3302     13.4789      8.5443
C      2.4156      0.2587      4.1938
C     -0.0497      2.4821      7.7066
C     -2.7802     10.9408      6.2129
C     -2.6615      3.5684      5.7179
C      4.9353     11.9160      4.8239
C      2.9195      4.2436      9.7534
C      1.0308      1.8268      1.4036
C     -1.2430      7.7830      1.6390
C     -9.2844     12.6789      8.9289
N      1.8698     -0.7854      4.6587
C      4.3053      0.7492      0.8567
O      4.0753      6.1310      2.0432
C     -3.3542      6.1650     13.0378
H      5.5272      9.8166      5.8910
H     -0.6798      1.5462      8.1423
C     -2.3993      4.5556      2.4776
C     -2.7368      8.1029      9.4307
H     -6.6892      2.3596      9.0665
H      1.5736      1.3034      6.5568
H     -5.7110      3.0243     11.1112
H     -4.8155      8.9327      9.0750
C     -2.3528      9.7665      0.4554
H     -8.5969      6.8185      9.3228
H      1.8656      7.6308      9.1867
H     -0.4600      9.2940      2.3550
H      1.4553     10.4429     -2.0299
H      4.4547     -0.4024      0.8095
H     -0.8098      3.6946      9.5422
C      1.9702      7.5087      2.1978
H      3.9490      0.8994     -0.1821
C      0.5941     10.0308     -1.5364
H      2.1941     10.3106      3.6617
C      4.5366      8.4801      4.3710
C      7.6762      7.3401      2.9091
C      7.8456      9.6024      0.9585
C      5.7566      8.4230      1.7678
C      4.4509      6.1454      6.2854
C      2.0649      4.9200      2.1771
C     -6.4935      5.3023     12.8541
C      5.5607      7.5678      4.2526
C     -4.4819      6.3067     13.5436
C     -8.8124      4.8525      7.3071
C      1.5283      4.9549      0.7161
H     -2.3422      6.0062      6.5594
C      6.4356      6.9372      5.2907
H     -0.7838      1.9879      5.8263
H     -2.9945      5.2463      1.8960
H      0.9559      1.6871      0.3704
C     -5.4284      5.1857     13.7345
H     -0.7983      3.9644      4.0337
H     -4.7988      8.8339     11.4577
H      8.3171     10.2752     -0.0408
H      0.0844      3.0910      2.5327
H     -1.2305     10.4264      1.9749
H      2.4266      5.8475     -0.5890
H      4.9248      5.1564      4.0721
C     -0.5004      8.0361     -1.4709
H      7.1171      5.8281      5.0702
C      2.7893      6.2941      2.7152
H      0.6760      6.5426      8.8281
C     -2.2545      4.7532      5.1927
C      0.4709      6.9497      5.1185
H      4.8506      8.1804      7.6649
H      1.8964      2.1559      5.3929
C      1.2884      5.6835      4.6352
H    -11.3294     12.0482      8.7065
H      1.7224     -0.3488      2.2594
H      3.2054     10.7085      2.4061
H      0.0336      7.9788      8.4104
C     -4.1762      6.3374      8.2687
C      4.2673      1.0664      8.5063
C      6.2992      7.6742      3.0721
C     -3.3946      9.8443      5.7482
C     -0.0286      6.2621      2.7596
C     -1.2967      6.4480      3.7707
H      2.8083      4.1848     -0.8487
H     -7.7361      4.6833     11.4792
H     -2.8469      3.4407      6.6864
C      1.8027      1.3440      8.9829
H     -1.0677      9.6526      7.2388
C      0.9251      5.1250      3.1608
C      5.2064      3.5633      2.6380
H      1.3554      4.6938      7.8005
H     -5.3886      8.5679      7.2315
C     -5.9652      3.8399      9.6184
H     -2.8373     12.1171      7.8847
H     -6.0538     10.4844      6.3752
C      1.8997      6.6635      8.5061
C     -1.4984      5.8199      6.0763
C      2.8182     -0.0088      2.7081
C      1.1865      4.6211      5.5161
C      1.9409      6.3861      7.0763
C      2.0919      4.9069     -0.6246
H     -1.4604      4.8464      2.1664
H      4.4226      1.7361      2.3310
H     -2.7659      9.0459      9.9837
H      5.2816      1.1839      1.0408
H     -4.5634      5.4229      8.7177
C     -0.1695      9.2709      4.8854
C     -3.9038      7.2456      9.3768
H     -8.4854      5.6793     12.4119
H     -3.6942      9.1774      3.0690
C     -4.7531     11.4330      7.6358
H     -2.4900      3.4434      2.3051
H     -4.3491      9.7463      6.1139
C     -0.4860      7.6368      7.6604
C      0.4729      3.5151      5.3834
O      8.0284      5.4069      4.2329
C     -1.5104      8.5083      5.3856
C      6.2025      1.3226      7.1235
C      5.1034      1.9439      6.3262
C      3.1874      0.5673      6.2390
H      7.1165      1.0902      6.6447
H      4.3743      3.0234      9.1621
H      0.3635      8.5295      6.5374
H      5.7540     11.7756      5.3896
C      1.9286      4.9723      6.8122
C      4.0512      5.2317      4.8546
C      3.4600      3.1650      8.9157
H      7.9422     10.3921      1.9279
C     -4.4816      6.9984     10.6071
H      3.5539      4.1666     10.8525
H     -1.7015      6.5038     -2.2671
C      3.7881      2.2596      4.4475
C      4.6464      9.5470      5.1777
C     -6.3080     12.6840      8.7938
C     -5.6706      9.2510      8.1616
C     -7.5114      4.2815      7.8335
C      5.7126      0.7982      8.3338
H     -1.5980      4.2000      8.3838
H     -3.1845     10.1759      0.0127
H     -2.7878      5.3011     13.6502
C      1.1576     10.2749      1.2714
H      3.2798      5.2644      9.6752
H     -1.8334      9.4324      3.3648
