264

C     19.7146     -4.4348      0.5260
N     -2.8066     10.3572      2.0745
C      3.7855      1.4774      7.2563
C      2.2397      2.6813      2.0646
C      7.8056      4.3182      1.9770
H      9.4407     -5.9015      3.3508
C      7.5477      2.8682      2.2048
C      3.5389      3.8643      5.5824
C     16.2739     -5.6252      6.3855
C      6.2964      1.7107      4.3417
C     -6.7577      8.2008     -4.1386
C     13.5073     -4.2771      0.8248
N      0.4250      2.6213     -6.5960
C      0.4012      5.9954      0.7138
O     -1.5311      2.6468      1.9502
C      3.6405      3.7711      7.0945
H     13.3295     -6.0236     -1.1629
C     15.5178     -6.6415      4.4992
C     16.7691     -2.4653      3.0057
H     11.4275    -10.4158      5.6585
H     16.8765     -7.6923      2.2027
C     17.0121     -3.9524      2.7920
H     -8.1040      7.5493     -2.7993
H     -4.4137      2.1675     -3.6923
H      2.5874      3.1635     11.2567
H     12.0508     -7.1118      7.1809
H      5.9712      1.0769      9.6510
C      3.1031      2.7501      7.9313
H      6.9065      1.5717      5.2852
O     13.6197     -2.2673      2.4164
C      7.4934     -0.6661      9.0618
C     -6.6338      5.9776     -3.2532
H      1.9969     -0.1806      6.5055
H      3.2923      5.2619      8.2550
C      6.4574      2.7060      3.2253
H     -6.9932      3.7247     -5.6044
H      3.2561     -0.6748     10.0047
H      2.0776      8.3516     -4.2640
C     17.3593     -2.1570      4.0923
C     10.1387     -4.0081      5.1825
O     15.1063     -4.0095      4.4373
C     -1.4116      8.3304     -5.6967
C     -4.0935      7.7510     -1.0274
C     20.7794     -5.8074      0.0240
C     -6.1008      6.4925     -0.7895
H      5.3108      3.5015      1.3496
H     17.6198     -3.1939      0.7587
H      1.6017     -1.1741      4.9302
H     -5.1973      6.2067     -4.5764
C     -5.1540      2.6799     -4.2805
H      0.6137      1.2538      1.5598
C     -5.3756      6.2372     -2.3156
C      7.7671      5.3794      2.9223
H      7.4803      6.7218      1.4625
C     11.9145     -6.0236      5.4112
H     15.8402     -4.3556      7.7545
H     16.7989     -1.8659      2.0968
H      2.6729      5.7361      0.8191
C      9.2315     -1.6401      7.6039
C     -6.9055      4.7424     -3.6899
C     15.9136     -5.1480      4.9965
C     -7.8268      5.3998      0.0876
C     17.6033     -4.2949      1.3488
H      9.2325     -4.5585      5.7490
H      8.1042      7.5806      2.7249
H      3.2169      1.0902     10.7371
H     -1.7375      1.7841      2.0025
H     18.4833     -0.8671      4.9778
C     -0.4873      3.6991     -4.8035
H     19.3211     -2.7418      1.6199
C     13.1634     -3.8540     -0.8887
C      1.6661      2.1126      8.1578
H     -2.3624      6.4978     -2.3126
C     -0.5872      6.1256      1.6187
H     -6.7477      7.3042     -1.1084
H     19.2027     -4.2920     -0.2447
C     -2.7069      7.2201     -0.2912
O     14.9303     -2.4245      0.4510
C     -5.8202      8.3303     -5.0866
C     16.7614     -4.4672      7.0186
C      3.3242      1.5811      9.8016
C      2.6585      1.1209      4.7356
H     -1.9884     10.9727      2.4755
H     -3.8555     10.8660      2.1377
H      5.9239     -0.1404      6.6199
H      3.1606      6.7799     -3.5289
C      4.0849      3.4634      3.3039
C     -2.1343      8.1593      0.6139
C     -1.7993      7.1741     -1.5513
C      5.1350      2.2244      5.2706
C      1.9987     -0.4361      8.5996
C      4.2225     -1.6116      7.9086
C     10.7426     -7.8290      4.1911
C     16.4422     -3.2326      6.1398
C      2.6874      3.8176      2.6996
C     -7.3483      7.0562     -3.8472
H      1.2586     -1.2599      8.8999
H     14.7810     -5.4504     -0.0720
H      7.9712      3.7155      4.4352
H      0.7301      3.8651     -0.5793
O      5.5280      6.6695      6.3253
C     13.7024     -4.6290      4.6932
H      3.6726     -1.6191      7.0142
C     10.1638     -4.2906      3.6887
C     10.6022     -5.5124      3.1562
H      8.0884     -3.0607      8.5933
H      8.5048      2.2690      2.5085
C     -2.5025      8.7424     -5.1429
H      2.3518      3.6804      5.4636
H     -8.6717      3.6382     -0.4545
H     -0.0825      3.8533     -3.7483
C      3.0735      1.5084      2.0339
C     12.6602     -4.4338      1.9938
O     -9.0492      4.3139      0.4172
O     -5.5057      3.6939     -2.1239
C     -0.3807      3.0950      1.6105
C      0.1478      3.8042     -8.7933
C     -6.0540     10.7112     -5.7614
H     15.6975     -2.5957      6.5516
H     -0.5904      9.7246     -8.7510
H     13.2196     -5.0823     -2.7216
O      0.4016     10.3187     -6.9380
C      5.6212     -1.7905      8.0147
C      0.7949      7.6626     -6.0294
C     14.1935     -5.6829      0.7539
H     15.8712     -4.6166      2.4872
C     13.6409     -5.1360      3.0445
H      7.8106      0.2292      8.6475
C      2.4457     -0.2343      3.6055
C      0.3422      2.7134     -5.2621
C     10.1908     -1.8542      6.6187
C     10.8453     -9.7325      6.2548
C     17.4904     -0.8710      4.5700
C      3.0997      3.9220     10.2810
C      0.8235      2.4785      1.9028
C     -1.4289      7.4102      1.6811
C      3.3950     -0.6805      8.8058
N      2.3363     -1.3111      4.3326
C      3.7846      1.3145      0.5419
O     17.0630     -6.8369      2.5158
C     -3.1264      5.8561      0.6289
H     -6.9683      9.2353     -6.7626
C     10.1573     -8.2957      3.1017
C     -2.9666      8.5280     -3.8273
H     -6.1647      2.3147     -4.6241
H      1.9203      1.3671      6.7411
H     -4.9755      9.3501     -7.0778
C     -2.8611      9.3717      0.9987
H     -7.8892      6.7066     -4.6810
H      1.3381      7.1617     -3.6527
H     12.2618     -3.2582      2.0715
H     14.2220     -3.1982     -2.5346
H      3.4023      0.5391     -0.2907
C     14.7615     -5.4106      2.2903
H      3.5828      2.2475     -0.3130
C     13.7484     -2.9378     -1.6820
H     -5.3046      5.1697     -2.3622
H      2.0406     -2.0326      3.6484
C      4.2178      8.2895      4.2782
C      7.4158      6.8145      2.5854
C     20.2916     -3.2540      1.0843
C     18.7421     -4.9207      1.6347
C      4.2215      6.1729      6.1378
C      1.8144      4.9742      2.5066
C     -6.4693      5.4599      0.0923
C      5.3975      7.4398      3.9763
C     -4.3909      5.9091      0.6105
H     14.3236     -2.2449     -1.0379
C      4.0366      5.0762      7.4828
C      1.8389      5.0104      1.0681
H     -3.1202      9.3480     -5.8921
C      6.2016      7.2331      5.2268
H     10.3644     -7.9187      1.9021
C     -5.3208      4.9289      0.6565
O      7.4849      7.2400      5.0896
H     -4.0053      8.6127     -1.3163
H     20.9856     -3.3040      1.8866
H      0.5935      3.0383     -9.4282
H      2.3973      4.5776     -0.9637
H      4.6622      5.5859      4.2650
C     13.0536     -5.0869     -1.5929
H     -6.4599      5.4925     -5.4833
C     15.7032     -6.6131      2.9863
C     11.0290     -8.3449      5.5449
C     13.6032     -5.7806      5.3877
H     -7.4924      9.0578     -4.1447
H      3.9629      1.4525      4.4876
C      1.1746      5.8141     -7.9894
H      2.0566     -0.1573      7.4283
H     12.9388     -2.9237      2.7187
H     -2.0142      8.2132     -3.2959
C     -4.7215      6.9952     -4.8536
C      4.0547      0.7745      8.7995
C      6.1020      7.3245      2.7973
C      9.7944     -2.5190      5.3405
C     -0.0204      6.3287     -9.8274
C     11.5298     -6.3995      3.9355
H     10.0686     -1.6922      8.4977
H      2.0272      3.0629      0.5030
H     -8.2299      5.5286     -0.9556
H     10.2559    -10.4719      6.8121
C      1.8849      1.0590      9.0522
H     11.1541     -2.0097      6.8990
C      0.6694      5.1696     -9.2265
C      5.0946      3.2893      2.5160
H      1.0727      5.0094     -4.9432
H     17.5242     -4.4319      7.7143
C     -5.6866      3.7985     -3.4391
H     -6.3258     11.5210     -6.4566
C      2.1279      7.1430     -4.2956
C     11.4695     -7.2980      6.3613
C      2.2349     -0.1171      2.1778
C      1.2752      4.8654     -6.9844
C      2.1383      6.8227     -5.6875
C      1.8023      4.0588      0.0306
H     -1.6035      5.5615      1.3431
H      3.7743      0.9803      2.8172
H     -3.0021      9.4834     -3.3699
H      4.8000      1.2225      0.7862
H     -3.6546      6.8593     -5.3974
H     -4.5094      2.8996     -5.2015
H     10.6633     -2.2026      4.4426
H      6.1548      0.7389      3.8393
C     -0.2094      9.4156     -7.8261
C     -3.9674      7.2801     -3.5398
H     -8.4926      6.1006      0.9186
H      9.0900     -4.1540      3.4486
C      7.9711     -2.0236      8.2317
H     10.0418     -9.2702      2.7531
H      8.7832     -1.9122      4.8537
C     -0.1107      7.8789     -5.1274
C      0.4206      3.7139     -7.3241
O      7.8266      4.7988      4.2400
C     -1.3468      8.5582     -7.1647
C      6.1270      0.9988      7.0517
C      4.9283      1.6812      6.5474
C      2.7225      0.7210      6.2279
H      7.2015      0.8040      6.9275
H      4.6179      3.0512      9.2736
H      7.8808     -0.9375     10.0436
H      0.0559     11.2115     -6.5475
H      0.1383      7.6520     -4.1211
C      1.5666      5.3913     -5.8113
H     -0.4089      4.0481      1.6828
C      3.7867      5.4035      5.0176
C      3.5450      2.9949      9.2548
H     20.2907     -2.6799      0.1126
H      0.0451      5.7898     -0.3348
C     -4.3868      7.2150     -2.3173
H      3.9662      4.6724     10.6699
H     -1.2814      6.3609     -1.0119
C      4.0425      2.9580      4.6456
C     17.4458     -3.2398      5.1836
C      6.0298     -0.8394      9.2126
C     -5.9240      9.2397     -6.3641
C     -7.2801      4.7008     -5.1327
C      5.5014      0.4525      8.7883
H     -0.0055      4.6232     -4.9966
H     -3.8607      9.7681      0.4161
H      5.5461     -0.8722     10.0961
H     -2.2336      5.1489      0.4308
C     14.4527     -3.0497      1.3100
H      2.3305      4.4915      9.6053
H     10.9605     -3.5540      3.4449
264

C     19.7014      8.4360     13.4795
N     -3.0812     10.6774      1.7895
C      3.9260      1.5462      7.2894
C      2.1506      2.4860      2.5175
C      7.2607      4.4997      2.0263
H     -3.4284      6.6822      2.9827
C      7.5617      3.1019      2.2728
C      3.2912      3.8686      5.1889
C     16.1138      7.0706     19.2661
C      6.4405      1.8620      4.3962
C     -7.0683      8.1700      9.0618
C     13.5081      8.7145     14.1423
N     -0.0131      2.5563      6.3319
C      0.6877      6.3600      0.7210
O     -1.2821      2.4982      1.1163
C      3.5026      3.7506      6.6996
H     13.2345      7.6502     10.7661
C     15.6971      6.2596     17.2825
C     16.6641     10.1992     16.0594
H    -11.5170     13.7049      9.8607
H     -2.6600      2.9409      5.1864
H     17.6572      6.1434     15.2241
C     16.8161      8.7499     15.8102
H     -8.4095      6.9687      9.9594
H    -10.7236     15.7635     10.7566
H     -2.5507      6.6704      6.8667
H     -7.0427     14.3968      9.2368
C      3.0070      2.8845      7.7593
H      7.1010      2.4953      5.1059
O     14.0032     10.4806     15.6420
C     -4.9739     11.9594      9.0896
C      6.1705      5.6919      9.5400
H      3.2110     -0.6276      6.6171
H      3.8852      4.7829      8.5278
C      6.3404      2.7561      3.1293
H      5.6556      3.4316      7.2415
H     -8.9478     12.0931      9.8928
H      3.5388      7.5810      8.5686
C     17.4730     10.6549     17.0047
C     -2.6636      8.8347      5.2561
O      2.0749      8.7217      4.9051
C     -1.2475      8.4315      7.2737
C      8.6889      8.0286     11.4454
C     20.6246      7.4426     12.6505
C      6.6290      6.6831     -1.2348
H      5.5272      2.6802      1.1223
H     17.6422      9.3548     13.7056
H      2.4241     -1.2461      5.4620
H     -5.5663      6.3082      7.5107
C      8.1190      3.0308      8.6050
H      0.3894      1.3538      1.0691
C      7.2301      6.1082     10.4582
C      7.7918      5.3038      2.9428
H      8.4500      7.1838      1.8932
C     -0.9964      6.9615      5.4923
H     16.2150      8.8149     20.7291
H     16.9842     10.8047     14.8865
H      2.5069      4.9994      0.8376
C     -3.1845     11.3687      7.3066
C      6.0984      4.3843      9.0759
C     15.9810      7.5588     17.8467
C      4.5846      5.4923     -0.1129
C     17.6576      8.6792     14.5882
H     -3.5754      8.0186      5.4876
H      8.0042      7.2120      3.8175
H     -9.4997     13.9326     10.4841
H     -1.3267      1.3638      1.2629
H     18.6613     11.7378     18.5700
C     -0.2505      3.7119      8.2804
H     19.2664     10.0589     14.8930
C     13.1436      9.0132     12.6012
C      1.6521      2.1418      8.1244
H     10.7320      6.8627     10.7090
C     -0.6785      6.2231      1.6085
H      5.9178      7.4811     -1.5164
C     10.0114      7.6563     12.4713
O     15.3864     10.1646     13.9574
C     -6.2644      8.3231      7.8033
C     16.6922      8.4088     19.9766
C     -9.4158     14.1951      9.5395
C      2.7614      0.9915      4.9708
H     -2.1879     11.0489      1.9875
H     -3.9651     11.1225      1.7085
H     -6.6913     13.1513      6.6641
H      2.9640      6.2345      9.6844
C      4.1978      3.5057      3.1105
C     -2.2574      8.4397      0.7048
C     11.1218      7.0579     11.7373
H     -2.3717     12.0985      5.6994
C      5.1588      1.9087      4.9313
H     18.0529     12.6429     17.0085
C    -10.9642     12.4743      8.5586
C     -8.3822     11.2528      8.0876
C     -1.8541      5.0411      4.0614
C     16.6278      9.6089     19.0835
C      2.7171      3.7472      2.7838
C     -7.6437      6.7800      9.1384
H    -11.5818     12.2606      9.2668
H     15.5345      7.4446     13.3005
H      9.0575      3.8425      3.7878
H      0.5385      3.2506      0.5691
O      5.5678      6.3684      6.2593
C      0.6563      8.2900      4.6475
C     -2.8448      8.6882      3.7516
C     -2.5243      7.2917      3.0783
H     -4.1621      9.7985      8.2340
H      8.4248      3.0318      2.7741
C     -2.4759      8.6792      7.7020
H      2.2505      3.8648      5.1492
H      4.3268      4.1635      1.2160
C      3.0281      1.4920      2.0178
C     -0.4056      8.5076      2.2885
O      4.1363      4.3007      0.3654
O      7.6867      3.8057     10.7057
C     -0.2707      3.1616      1.9415
C      0.3944      3.6732      4.2347
C     -5.8989     10.9405      7.1490
H     16.1705     10.5301     19.2447
H     -1.0241      9.7107      4.2084
H     11.9257      8.6347     10.9805
O      0.6000     10.2328      5.8915
C     -7.0363     11.3415      8.2035
C      0.9976      7.5233      6.9192
C     14.5126      7.4569     14.0606
H     15.4593      8.2466     15.5805
C      0.6125      7.7237      3.3272
H     -4.4918     12.7959      9.0698
C      2.5781     -0.1700      3.8528
C      0.2700      2.5986      7.7279
C     -2.6979     11.0641      6.1782
C     -2.0575      3.4409      5.9813
C     17.7256     11.9106     17.6901
C    -10.0248     16.6528     10.2992
C      0.7697      2.2166      1.9231
C     -1.4102      7.5677      1.6542
C     -9.2826     12.2530      8.7559
N      2.0485     -1.2368      4.5505
H      8.0186      2.4495      1.6604
C      3.4282      1.6971      0.5039
O     16.7373      6.4691     14.9933
C      9.4288      6.3891      0.2515
C     -2.3755      4.1554      2.9332
C     -3.1732      8.6605      8.9117
H      7.8195      3.3845      7.3970
H      1.6541      0.9693      7.0462
H     -5.7206      9.3102      5.9734
C     -2.9466      9.5757      1.0819
H     -8.4573      7.0127      8.2908
H      2.3125      7.7729      9.5319
H     -0.8642      9.3646      2.6589
H     13.7045     10.0602     10.7317
H      3.1606      0.7311     -0.0817
H     -1.2317      4.0115      8.0017
C     14.7594      7.4705     15.4504
H      2.9590      2.4494     -0.5521
C     13.9535      9.8835     11.8259
H      7.8837      5.3484     10.8446
H      2.3429     -1.9234      4.0703
C      4.2449      8.1316      4.2241
C      7.8132      6.9048      2.7651
C     20.4038      9.6639     14.3963
C     18.7975      7.9272     14.5459
C      4.1139      6.0337      6.2472
C      1.9175      5.0092      2.7094
C      6.0586      5.5669     -0.3031
C      5.4703      7.3846      3.9523
C      8.0620      6.3184      0.5773
H     14.4222     10.5769     12.5466
C      4.2003      4.8644      7.4536
C      1.5163      5.0504      0.9374
H     -3.3380      8.6807      6.7924
C      6.4312      7.2182      5.0762
H      1.9563      1.5800      4.4617
H     -2.4800      4.7551      1.9152
C      7.0933      5.3387      0.7373
H     -0.6278      3.3599      4.1704
O      7.5217      7.6600      5.1264
H      8.8314      9.0430     11.3519
H     20.7991      9.1990     15.2090
H      1.1094      2.8420      3.8961
H      0.9117      3.9853     -1.0817
H      4.7629      5.2164      4.6610
C     12.4646      8.0468     11.7217
H      6.0668      4.9733      6.8899
C     15.6259      6.3021     15.8218
C     -1.9004      4.8703      5.4491
C      0.5384      7.0327      5.5788
C      1.2501      5.8222      5.1348
H    -11.5996     12.4672      7.7334
H      2.4771     -0.8850      2.1097
H     13.8544      9.7947     16.1990
H     -2.2384      8.2617      9.5524
C     -5.1264      7.4519      7.6867
C     -8.7042     13.4896      8.5803
C      6.2508      7.0885      2.7382
C     -3.3767     10.2966      5.0987
C     -0.1919      6.4437      3.1879
C     -1.5846      6.6994      4.1435
H      2.1858      3.2114     -0.2188
H      4.2225      5.5633     -1.4305
H     -1.9995      3.4006      7.2593
C    -10.9466     13.8440      9.0134
H     -1.7828     10.8628      6.7494
C      0.8486      5.0324      3.8012
C      5.2284      2.9907      2.3720
H      1.8135      4.7789      8.4393
H     17.9065      8.4337     19.8448
C      7.2783      3.6027      9.5181
H     -2.1837     11.8061      7.9188
H     -5.8189     11.4257      6.0720
C      2.5694      7.0685      8.8758
C     -1.8143      6.0873      6.4246
C      2.8463      0.0419      2.5483
C      1.0404      4.7949      6.3425
C      2.0210      6.6625      7.4695
C      1.2141      4.0096     -0.0405
H     -1.1938      5.4334      1.3778
H      3.9078      1.7517      2.5319
H     -3.2146      9.5957      9.0782
H      4.5366      1.4563      0.1220
H     -4.3393      7.3593      6.9574
H      9.0600      2.6084      8.8190
H     -3.4680     10.5754      4.1518
H      6.8788      0.8046      4.2577
C     -0.3846      9.2856      5.0292
C     -4.2649      7.5581      8.8918
H     -3.7793      8.8835      3.1828
C     -4.5292     10.9089      7.8302
H     -1.5987      3.1639      3.1645
H     -4.5374      9.9760      5.6216
C      0.0048      7.8197      7.7412
C      0.5408      3.4517      5.6666
O      8.4764      4.8274      3.9267
C     -1.3479      8.5224      5.7756
C     -6.7660     13.9699      7.1722
C      5.0366      1.7304      6.4690
C      2.6277      0.4988      6.3751
H     -5.6737     14.3845      7.5418
H     -8.0700     15.6691      8.9228
H     -4.7629     11.5609     10.2693
H      1.5403      9.7708      6.3063
H     16.9301     12.4063     18.4231
H      0.4671      8.1032      8.7505
C      1.7608      5.1866      7.3975
H     -0.2907      4.2173      2.0782
C      3.7854      5.2120      5.0686
C     -9.4007     15.8145      9.1800
H     20.4820     10.5989     13.8257
H      0.2992      6.7807     -0.4345
C      8.2630      7.2245     10.1559
H     -9.3650     17.0495     11.2349
H     11.5447      6.1837     12.4916
C      4.3272      2.9423      4.3735
C     17.4733      9.6383     17.9500
C     -6.4727     12.1830      9.1303
C     -6.3305      9.3425      6.7497
C      5.6305      4.3285      7.6957
C     -7.0166     13.6153      8.5838
H     -0.9502      5.6976      7.2954
H     -6.9136     12.3502     10.0353
H      9.9923      5.4913      0.8005
C     14.1860      9.8853     14.4788
H    -10.7965     17.4803     10.0637
H     -1.9855      9.2555      3.0908
264

C      6.8733      8.5947      0.6760
N     -2.3201     10.6862      1.4556
C      3.6641      1.5862      7.3109
C      2.4778      2.3767      2.0260
C      7.6708      4.9654      2.4079
H     -3.1624      7.4767      2.6075
C      7.8669      3.5943      2.9428
C      3.2102      4.0581      5.1762
C      3.3490      7.2844      6.4238
C      5.9154      1.5714      3.8184
C     -7.4368      8.1326      9.8607
C      0.5712      9.1159      0.8911
N      0.0778      2.6387      5.9748
C      0.3853      5.9513      0.3864
O     -1.1800      2.1984      1.8158
C      3.1794      4.1350      6.7415
H     -0.1400      5.8595     -0.5667
C      2.7787      6.1767      4.3095
C      3.7064     10.2257      3.4308
H      1.2587      1.8139      9.8595
H     -2.8277      2.9682      4.1696
H      4.5554      6.6948      2.3890
C      4.1212      8.9086      3.2367
H     -8.1497      6.1650     10.6167
H     -7.0935      8.5772     10.7661
H     -1.3355      5.4419      6.8411
H     -4.2923      2.5039      7.9670
C      2.9284      2.8817      7.5294
H      6.9334      1.2553      4.2365
O      1.0650     10.4776      2.6879
C     -5.1293     12.9989      8.3013
C     -6.6783      5.7982      9.8825
H      2.3256      0.0605      6.5683
H     -9.1766      5.5498      8.1445
C      6.5475      2.9055      3.2078
H     -6.4860      3.6454      7.6712
H     -9.0105     10.3964      9.4271
H      2.4381      7.3661      9.3711
C      4.7096     10.9646      4.4843
C     -2.9820      8.5265      4.9390
O      1.9575      8.6470      4.8799
C     -1.3182      8.4120      7.1866
C     -4.4236      7.8988     11.7896
C      7.6379      7.3294     -0.0715
C     -6.4658      6.6667     12.1268
H      5.5373      4.8742      2.7255
H      4.2031      9.5194      1.2877
H      1.8979     -0.7065      5.6860
H     -3.6394      5.6746      7.7566
H      2.6640     10.4145      0.0531
C     -4.8344      2.9802      8.9142
H      0.5897      1.0459      2.0948
C     -5.6541      6.2637     10.8693
C      8.1330      5.9495      3.1517
H      8.6432      7.7851      2.2453
C     -1.0906      6.8396      5.0965
H      2.8466      8.2841      8.0178
H      3.2501     -0.7870      2.2397
H      1.0311      7.1367      0.5315
C     -3.3507     11.7149      7.1441
C     -6.7930      4.7563      9.1551
C      2.8957      7.5686      4.9024
C     -8.0586      4.9491     12.7827
C      4.8124      8.8466      1.9612
H     -3.4753      7.6953      5.3156
H      8.3902      7.8675      3.9436
H      3.7073      1.5677     10.4437
H      4.3176     12.4774      3.5847
C     -0.5050      3.9987      8.1521
H      8.7235      9.1782      1.5703
C      0.2139      9.1791     -0.9223
C      1.5682      2.0528      7.9210
H     -2.3207      7.0393     -2.4345
C     -0.5871      6.3357      1.4286
H     -7.2272      7.3585     11.8694
H      6.3179      9.0585     -0.2747
C     -2.9099      7.5454     -0.5342
O      2.3785     11.0418      0.6889
C     -6.6524      8.3277      8.7389
C      3.8058      8.4214      7.2883
C      3.3368      1.6785      9.4653
C      2.9432      1.4410      5.0417
H     -1.2627     10.6631      1.5300
H     -7.2944     12.1510      7.1230
H      1.8417      4.4448      9.7006
C      4.2036      3.3147      3.2251
H     -3.6125      8.4078      6.7981
C     -2.1160      8.3521      0.5289
C     -1.8290      7.2206     -1.5694
H     -1.8042     11.0882      6.1278
C      5.2258      2.0175      5.1277
H      3.9679     -0.0387      6.0623
C    -10.9658     12.6979      9.3144
C     -8.6028     11.2755      8.6119
C     -2.1189      5.2005      3.6225
C      3.9019      9.5190      6.4756
C      2.7792      3.6916      2.6770
C     -7.9051      6.6363      9.8822
H      2.5784      7.9024      0.3590
H      1.2159      3.4442     -0.6689
O      5.7022      6.4448      6.4066
C      0.6271      8.2645      4.3196
C     -2.8389      8.9499      3.5163
C     -2.2358      7.8073      2.8910
H     -6.7242      7.5105      7.9005
H      8.6267      3.8101      3.7606
C     -2.7842      8.4180      7.7761
H      2.2954      4.1445      4.5528
H      0.8610      9.5450     -3.0321
H     -7.6203      2.8948     13.5983
H     -0.1553      5.0365      7.9860
C      3.3047      1.1088      1.9550
C     -0.2329      8.5151      2.0412
O     -8.4417      3.7507     13.6943
O     -5.5446      3.9649     10.8252
C     -0.0666      2.7480      1.5318
C      0.0105      3.9070      3.8080
C     -5.8591     10.8590      7.8076
H     -2.9371      9.5963      8.1175
H      3.0923      9.6012      5.8445
H     -0.9129     10.1227      4.3476
H     -0.1264      8.1878     -2.6222
O      0.3475      9.7214      6.1404
C     -7.0936     11.7652      8.3687
C      0.6768      7.1901      6.7453
C      1.7015      7.9306      0.9520
C      0.5705      7.7141      2.9471
H     -4.2651     13.5982      8.4668
C      2.6516      0.2221      4.0824
C     -0.0420      2.6557      7.7818
C     -2.7935     10.6821      6.4177
C     -2.3841      3.3970      5.1394
C      5.1701     12.2277      4.1666
C      2.9364      4.2520      9.9458
C      1.0644      1.8766      1.4456
C     -1.4052      7.7756      1.5840
C     -9.6033     12.3807      8.7880
N      2.1281     -0.9185      4.6916
C      3.5176      0.4672      0.6226
O      3.9702      6.0893      2.2117
C     -3.2916      6.2640     13.0399
H      5.8948     10.2532      6.0880
H     -0.5473      1.7256      8.0142
C     -2.2621      4.4088      2.2775
C     -2.9486      8.0826      9.1624
H     -5.5107      2.1958      9.5083
H      1.1593      1.1720      7.2869
H     -6.1178      3.9425     11.6519
H     -4.9390      9.7077      9.4870
C     -2.5775      9.6756      0.5885
H     -8.6411      6.3959      9.1649
H      0.9752      7.0948      8.7371
H     -0.6876      9.6721      2.6478
H      0.9900     10.8040     -1.4513
H      4.3150     -0.2290      0.8957
C      1.8774      7.4262      2.2931
H      2.5588      0.1161      0.5610
C      0.5728      9.9992     -1.8950
H      2.7084     10.0316      3.6483
C      4.3723      8.0431      4.3442
C      8.0051      7.4817      3.0709
C      7.8045      9.6914      1.2089
C      6.0017      8.2195      1.8383
C      4.2641      6.0763      6.1146
C      1.8602      4.9151      2.4193
C     -6.8162      5.4913     13.0154
C      5.6366      7.3037      4.2541
C     -4.6617      6.1983     13.2605
C     -8.6371      4.8610      7.5321
C      1.3353      5.1213      0.7621
H     -2.5874      6.8684      6.1087
C      6.4358      7.2194      5.4581
H     -0.8020      2.1686      5.5541
H     -2.6574      5.1218      1.6950
C     -5.6085      5.1655     13.8770
O      7.5031      7.5556      6.1061
H     -4.7010      8.8203     11.5662
H      8.1043     10.6071      0.6602
H      0.6337      3.2804      3.0839
H     -2.3225     11.4174      0.9293
H      2.2698      4.9671     -0.9960
H      4.9365      6.0786      4.2084
C     -0.4702      7.8396     -1.5446
H      6.7137      5.5078      4.3253
C      2.6102      6.1318      2.8193
H      1.9615      5.8172      9.4360
C     -2.5541      4.8197      4.9389
C      0.4300      6.9434      5.2959
H      4.8167      8.1147      7.8446
H      2.0653      2.2304      5.2188
C      1.1883      5.7582      4.7401
H    -11.9759     11.9660      9.3370
H      1.7563     -0.7448      2.4376
H      3.6954     10.7851      2.5636
H     -0.4519      7.4909      8.9079
C     -4.3795      6.5130      7.9709
C      4.0997      0.6792      8.3551
C      6.6223      7.4909      3.0240
C     -3.5335      9.6920      5.7738
C     -0.0397      6.4305      2.7237
C     -1.3677      6.6511      3.5304
H      2.8556      3.6137      0.1510
H     -8.5146      4.9913     11.6237
H     -2.3639      3.0099      6.2603
C      1.9848      1.4164      9.2167
H     -0.7409      9.6365      7.4735
C      0.7023      5.3370      3.3569
C      5.4887      3.8700      2.9642
H      1.6666      4.9935      8.1171
H     -5.2431      9.0194      7.4385
C     -5.6738      3.9679      9.5641
H     -2.4230     11.9574      7.5963
H     -6.0914     10.2853      6.8108
C      1.9688      6.5883      8.7246
C     -2.0041      5.9175      5.8306
C      2.5971      0.0911      2.7580
C      1.2347      4.8961      5.8500
C      2.1260      6.5089      7.1658
C      1.9757      4.2529     -0.4021
H     -1.1273      5.2610      1.8831
H      4.1070      1.2772      2.2875
H     -2.4044      8.6204      9.8791
H      4.2649      1.3130      0.0403
H     -5.2359      5.9298      8.3755
C     -0.2232      9.2995      4.9244
C     -3.9568      7.1909      9.2689
H     -8.9676      5.7137     13.1882
H     -3.6451      9.2833      3.1100
C     -4.5354     11.8289      8.0838
H     -2.7585      3.5186      2.3567
H     -4.5512      9.6599      6.2186
C     -0.3024      7.4606      7.7035
C      0.3039      3.8179      5.2833
O      7.6967      5.7498      4.4525
C     -1.4764      8.3566      5.4706
C      6.2047      1.6688      7.3039
C      5.0851      1.8193      6.4030
C      3.2344      0.5981      6.2464
H     -4.2929      7.3454      7.2926
H      7.2221      1.6415      7.3431
H      4.4450      3.2798      9.3243
H     -6.0718     13.0225     10.1221
H      0.7288      8.9544      6.5998
H      5.6960     13.3131      4.4072
C      2.0566      5.0394      7.0188
H     -0.0341      3.7900      1.5044
C      3.9752      5.2647      4.8060
C      3.4885      3.1937      8.9740
H      7.3939     10.4031      2.0028
C     -4.6688      7.0630     10.5499
H      3.2025      4.2417     11.0450
H     -1.5757      6.2188     -1.5470
C      4.0454      2.7560      4.5456
C      4.9735     10.1286      5.7428
C     -6.3971     12.7688      9.0943
C     -5.6141      9.4891      8.3676
C     -7.4123      4.1389      7.9028
C      5.6148      0.7699      8.2371
H     -1.2540      4.0889      7.3101
H     -3.5636      9.8640      0.1424
H     -2.8870      5.1231     12.8224
C      1.0999     10.3754      1.5310
H      3.6295      5.1320      9.6654
H     -2.1709      9.7861      3.7114
