261

C     20.1417      8.9597     13.9852
C      3.9431      1.7300      7.3182
C      1.9214      2.7930      1.6457
C      7.1664      4.8440      2.5545
C      7.2205      3.5627      2.7991
C      3.3162      3.7474      5.3872
C     -5.9170      9.9815     10.3632
C     16.4873      7.1646     19.4941
C      5.9523      1.8115      3.8995
C     -6.8589      9.1841      9.5754
C     13.9177      8.6862     13.8218
N     -0.1321      2.8973      6.6404
C      0.6402      6.0624      0.6323
O     -1.4021      2.4632      1.3708
C      3.0432      3.8698      6.7982
C     15.6118      6.1736     17.4313
C     16.5353     10.5036     16.9499
H    -11.6325     13.4722      9.5654
H     -3.7178      3.4909      5.4658
H     17.4117      6.9129     15.9026
H     -7.3021     10.4655     12.4160
C     17.1184      9.2153     16.3971
H     -8.2847      8.4856     10.9981
H     -5.3740     10.7146      9.6002
H      7.9437      3.2887      3.5062
H     12.8311      7.1776     10.8313
H     -0.9384      5.5744      6.5528
C      2.8289      2.6845      7.6415
H     -3.4897      9.8063     -0.7101
H      6.8724      1.0176      4.2007
O     15.3400     10.0573     15.0227
C     -4.8769     12.6192      8.5699
C      6.6288      5.8985      9.5930
H      3.0996     -0.3637      6.4117
H      3.0448      6.8547      9.4598
C      5.9561      2.7921      2.7966
H      6.4602      4.7331      7.7737
H     -4.9857      9.4962     11.0152
H     -7.8786     10.8404      9.2960
H     -8.3620      7.9707      8.9833
C     17.8447     10.8802     17.7290
C     -2.9488      8.8621      4.9512
O      1.9802      8.4556      5.2570
C     -1.5433      7.6990      7.0801
C      8.6409      8.0534     12.0583
C     20.5436      7.7801     13.0453
C      6.3149      7.1917     -0.6749
H     11.6978      8.6874     10.6609
H      5.1094      4.2538      1.6731
H     17.5749     10.2426     14.5838
H      1.3202     -0.5448      2.6456
H     -4.6130      5.3475      8.4115
H     15.0191     10.1112     15.9572
C      6.9365      6.6398     11.0505
C      7.8731      5.6492      3.6181
H      8.2064      7.1822      1.9621
C     -1.1408      6.9751      4.9701
H      4.5192      0.1557      2.3844
H     -6.8799     12.0076     11.4653
C     -3.0192     11.4980      7.8157
C      5.3559      5.5145      9.2930
C     16.0402      7.6782     18.1049
C      4.4157      5.8165      0.4151
C     17.7488      9.2403     15.1532
H     -3.9608      8.5434      5.1282
H      8.4919      7.7073      3.8078
H     -9.2763     13.5826     10.3850
H     -6.5671     12.1248      9.7154
H     17.5444     12.4381     16.6761
C      0.0014      3.8293      8.6549
C     13.3848      8.5970     12.3097
C      1.7412      1.7103      7.8306
H     -1.9802      7.3968      9.8118
C     -0.7232      6.4833      1.2967
H      5.6925      7.8419     -1.0558
H     -2.2660      2.5865      5.2444
H     -7.7610     10.5489     10.9581
C     10.0552      7.5564     12.7385
O     14.4478     11.1628     13.3085
C     -6.3497      8.7134      8.1895
C     16.3420      8.4841     20.3962
C     -9.5693     14.3015      9.4960
C      2.6904      1.3951      4.7793
H     -1.6206      9.8094     -1.0333
H     -6.9015     12.3579      6.7973
H     -9.2629     16.8000     11.1222
C      3.6837      3.1228      3.2430
H     -4.1471     10.0728      5.8630
C     -1.9906      8.5116      0.3397
C     11.1499      6.9953     11.8651
H     -1.6724     10.1862      7.5260
C      5.0081      2.2472      5.0733
H      4.3034      0.5437      5.1758
H     -4.7282     13.3196      7.6223
C    -10.3356     12.3254      8.3928
C     -7.9653     11.1762      8.0647
C     -2.2362      5.0655      3.3884
C     16.6961      9.5756     19.5603
C      2.3235      3.4185      2.8703
C     -7.9050      8.3759      9.8465
H     15.8892      8.5977     14.1972
H     -3.4731      4.8253      2.2957
H     13.5802     11.8395     13.4666
H      1.7317      4.2723     -0.6981
O      5.8965      6.2516      6.5497
C      0.5153      8.2292      4.4564
H     -8.4884     10.4423      7.3842
C     -2.4960      9.1210      3.7615
C     -2.1214      7.8032      2.7403
H     -7.4316      8.5130      7.8789
C     -2.7894      7.4903      7.8236
H      2.1919      3.3801      5.0786
H     14.3957      8.5332     10.3772
H      5.8923      2.3502      1.5816
H      0.9857      4.1986      9.1693
C      3.0494      1.8677      1.2068
C     -0.0186      8.6412      1.9539
C     -0.4867      3.1937      1.7604
C     -0.4082      4.0990      4.4233
C     -5.4103     10.6390      7.2778
H     -3.7152      7.4814      7.4393
H     16.1436     10.5639     19.6077
O      0.0042      9.5950      6.4114
C     -6.5658     11.5247      7.5712
C      0.9083      7.0871      6.7195
C     15.1533      7.7799     14.2052
H     15.8704      8.2900     16.2012
C      0.5506      7.6606      3.1364
H     -4.1197     13.1344      9.5473
C      2.5467      0.6550      3.5002
C      0.4180      2.6016      7.9714
C     -2.3327     10.7857      6.7840
C     -2.7407      3.5161      5.5454
C     18.2495     12.1080     17.5267
C     -9.7256     16.9939     10.0451
C      0.6055      2.5859      1.0361
C     -1.3198      7.9558      1.5208
C     -8.8751     12.4364      8.2940
N      1.9553     -0.4411      3.7228
H      3.7951      0.3605      0.2328
C      2.9110      1.0391     -0.2603
O     16.9841      6.1908     15.4436
C      9.4393      6.3930      0.6694
H     18.9937      9.2631     18.5752
H     -0.5047      1.7537      8.1053
C     -2.7396      4.1740      2.5695
C     -2.8066      7.2624      9.2655
H      1.4894      1.0593      6.9986
H      7.3553      5.0288     -0.0031
H     -4.8958      8.6479      6.7639
C     -2.5647      9.6502     -0.3466
H      4.5053      5.2094      9.9469
H      1.9442      7.7368      9.2217
H     15.1448      9.3868     12.0857
H      3.9920      1.1838     -0.9436
H     -0.7617      3.4608      9.2756
C     15.0029      7.5302     15.7568
C     14.4606      9.0355     11.3760
C     -6.8390     10.8357     11.4549
H     15.4591     10.6202     17.0359
C      4.4208      8.0915      4.3977
C      7.8551      7.1064      3.2840
C     21.1340      9.5629     14.7128
C     18.9502      8.6729     14.8527
C      4.4633      5.9840      6.4229
C      1.6822      4.8831      2.5701
C      5.6871      6.2645      0.1629
C      5.8848      7.5651      4.3021
C      8.1300      6.6313      0.8629
C      4.0547      5.0087      7.4778
C      1.5574      5.1650      1.0387
H     -2.8689      5.8735      6.0745
C      6.6279      7.0680      5.4872
H      9.4083      5.7208     -0.2103
C      7.0019      5.6526      0.9293
H     -0.9012      3.1252      3.6650
O      7.8164      7.1116      5.8156
H      8.1593      9.0662     12.2083
H      1.5426      3.0648      3.6263
H     -0.2599      9.5328      2.4139
H      3.2002      3.6910      0.2809
H      4.6061      5.0903      4.1356
C     12.2610      7.8801     11.4474
C     15.4921      6.1222     15.9335
H      1.5995      6.3522      9.7818
C     -1.8479      4.6401      4.8875
C      0.3104      7.0239      5.2428
H     16.9286      8.6898     21.0896
H      1.4619      1.4163      5.0129
C      1.2982      5.8641      4.8316
H      2.7463     -0.1523      1.7603
H     16.6178     11.1372     16.2174
H     -0.4420      7.1687      8.6400
C     -4.9466      6.2797      8.8884
C     -8.5274     13.8463      8.3845
C      6.5473      7.7892      2.9524
C     -3.0971     10.1856      5.6285
C     -0.2370      6.3331      2.9054
C     -1.5156      6.5250      3.4988
H      3.8249      6.6302      0.3051
H     -2.4946      3.5065      6.7157
C    -10.8159     13.5524      8.8556
C      0.5201      5.2656      3.5753
C      4.7465      3.6524      2.6300
H      1.6164      4.8118      8.0240
H     -2.3862     12.2672      8.6176
H     -5.4429     10.9214      6.1479
C      2.1907      6.8921      8.8408
C     -1.7140      5.7547      5.8353
C      3.2933      0.7233      2.2160
C      1.0125      4.8788      5.9169
C      2.2821      6.4490      7.3709
C      2.0941      4.0478      0.2933
H     -1.4754      5.8227      0.7358
H      4.1154      2.4428      0.7845
H     -1.7064     11.4156      6.2280
H      5.3171      0.9244      3.9207
C     -0.4841      8.9894      5.1478
C     -4.1214      7.0090      9.7599
H      3.9581      5.0955      1.1857
H     21.9655     10.0004     13.9024
C     -4.3375     11.4333      8.0155
H     10.0553      5.6575      1.1413
H     -3.1984     11.4171      5.1742
H     -6.3064     14.5663      8.9106
C     -0.1399      7.3574      7.6371
C      0.3271      3.7792      5.6714
O      8.7329      5.3033      4.4265
C     -1.6950      8.1557      5.6152
C     -6.7066     14.3379      7.2293
C      5.2127      2.0244      6.4558
C      3.4790      0.4949      5.9139
H      9.7329      5.4222      4.2927
H     -5.9389     15.1584      7.6469
H      5.3604      3.6829      8.4165
H     -4.2276      9.2531      8.2713
H      0.6695      9.2959      7.2522
H     19.4542     12.6317     17.7754
H    -10.4810     11.2414      8.2488
C      1.8505      4.8689      7.0283
H     -0.0874      4.1497      2.1542
C      3.9775      5.2313      5.0691
C     -9.6059     15.8394      9.2582
H     21.3612      8.8669     15.5076
C      8.2665      7.2888     10.8965
H      3.8942      5.4892      8.5324
H     10.8380      6.2442     11.0426
H     -6.2544     13.6273      6.6744
C      3.6937      2.4629      4.6663
C     17.8990      9.5676     18.8412
C     -6.3217     12.4403      8.7499
C     -5.1384      9.2977      7.5588
C      5.4346      4.7720      8.1049
C     -6.9862     13.7661      8.5981
H     -0.2226      4.8451      8.0503
H      0.4763      3.5187      0.2402
H     19.9423      9.4983     13.0504
H      7.3545      5.5027     11.2240
H     -1.0115      2.5019      6.2533
C     14.3368     10.0720     14.0106
H    -10.6635     17.5759      9.8567
