268

C      7.1323      9.0534      1.0845
N     -2.1075     10.8511      1.7001
C      3.7053      1.4960      6.9624
C      2.0500      3.0181      1.3854
C      6.8426      5.1852      2.2780
H      8.9304     -7.7536      3.1604
C      7.2065      3.8390      2.6792
C      3.3945      3.8765      5.5271
C      3.4212      7.2982      6.6104
C      6.0783      1.7099      3.7177
C      5.7419     -4.1327      9.5649
C      0.9960      8.6741      0.6611
N     12.3691    -10.1463      6.3821
C      0.1865      5.3387      0.5998
O     -1.7634      2.3714      1.6574
C      3.3934      4.1044      7.0302
C      2.8829      6.2198      4.4402
C      3.8638     10.3977      3.7391
H      1.1092      0.9128      9.3691
H      8.6884     -9.1769      4.6012
H      4.3469      6.9727      1.9896
C      4.1545      9.0819      3.3677
H      4.0450     -5.0024     10.8563
H      5.7765     -3.0643      9.8257
H      7.2624      3.5968      3.7339
H      0.4293      6.9752     -1.8627
H     11.8563     -7.6345      6.7210
H      8.2349    -10.2938     10.0780
C      3.0064      2.8845      7.6197
H      6.5907      0.7068      3.8805
O      1.2726     10.7287      1.9836
C      8.0158     -0.2588      8.7563
H      4.7329     -9.2580     10.5389
C      6.9360     -6.8221      9.9371
H      2.3095     -0.3269      6.1184
H     15.5127     -5.1924      9.2196
C      6.1409      2.8601      2.5045
H      6.5955     -8.0108      7.5198
H      4.9624     -1.8311      9.6378
H      4.8186     -6.1665      9.3044
C      4.8037     10.9692      4.7421
C      9.9909     -4.5685      4.9226
O     14.8381     -4.1619      4.8313
C     11.2969     -5.0106      7.0135
C      8.7952     -4.6474     12.0930
C      7.6217      7.9811      0.0993
C      6.5533     -5.5656     12.2655
H      5.2486      4.1460      1.6422
H      4.5384      9.7073      1.2133
H      1.4590     -0.3381      2.7393
H      0.9145     10.5633      2.9349
C      7.6434     -9.7169      9.3440
C      7.2510     -6.2310     11.0414
C      7.4468      5.9201      3.3243
H      8.4244      7.6373      2.4284
C     11.9049     -6.1783      5.0070
H      3.3553      8.7275      8.2349
H      2.4717     -0.0910      1.6719
H      2.3957      6.7746      0.6927
C      9.7433     -1.3312      7.0516
C      6.0050     -7.8131      9.5282
O      5.5527     -9.9160     10.4324
C      3.1188      7.6710      5.1405
C      4.4224     -6.8129     13.0757
C      4.7767      9.0112      1.9208
H      9.1428     -5.2725      5.2429
H      8.1433      7.6585      4.0630
H      3.6730      0.9185     10.4080
H      6.3814     -0.6914      9.9128
H      5.0459     12.4046      3.3666
C     12.5512     -9.3596      8.7417
C      0.2025      8.5034     -0.5933
C      1.4861      2.0111      7.5486
H     10.8768     -4.7846      9.6789
C     -0.4643      6.2981      1.5148
H      5.7961     -4.9790     11.7478
H     10.3252    -10.3552      4.6015
C     -2.8393      7.7446     -0.2946
O      2.6265     10.6002      0.2510
C      6.5263     -4.3914      8.4250
C      3.9261      8.3969      7.3458
C      3.3513      1.3847      9.3777
C      3.0771      1.3152      4.7300
H     -2.9776     11.3154      1.8956
H     -3.0347     10.0812      0.0951
H      5.7226     -0.6126      7.2901
H      2.9702      3.3052     10.8968
C      3.7207      3.2340      3.2268
H      8.4468     -4.0971      5.9559
C     -1.9927      8.4455      0.6497
C     -1.7270      7.2562     -1.3266
H     10.2860     -3.1817      7.6105
C      5.4404      2.1786      4.9212
H      4.3417      0.0037      6.0589
H      8.4370      0.7429      8.5915
C      2.4018     -0.5077      8.1060
C      4.5339     -1.8069      8.6290
C     10.7463     -7.6632      3.7215
C      3.9924      9.7007      6.4335
C      2.4795      3.5653      2.5417
C      4.9906     -5.1976      9.9640
H      3.4511      8.0994      0.9911
H      2.4602      4.9113     -1.3937
O      5.6795      6.8333      6.4434
C     13.6727     -4.6939      4.5557
H      3.8979     -2.7324      8.0206
C     10.2823     -4.3351      3.4899
C     10.8056     -5.4409      2.8189
H      6.4277     -4.2525      7.2873
C     10.0869     -5.2854      7.6256
H      2.3748      3.6668      5.0374
H      0.8128      9.1700     -2.5462
H     13.0903     -9.9249      9.7014
C      3.1489      2.1072      0.7983
C     13.1082     -4.3411      2.0183
O      7.3146     -8.9175     11.5249
C     -0.6142      2.9530      1.6842
C     12.9218     -9.0777      4.2032
C      7.2047     -2.2511      7.5238
H      8.9972     -5.3806      7.4081
H      2.9508      9.9857      6.3492
O     12.9087     -3.2052      6.0797
C      5.8057     -1.4521      7.9811
C     13.6589     -5.9102      6.7335
C      2.3137      7.6720      1.1747
H      2.9179      8.6344      2.8162
C     13.7997     -5.3502      3.0400
H      8.3768     -0.6202      9.7841
C      3.0478      0.4944      3.4367
C     12.8957    -10.4603      7.7190
C     10.2104     -2.7275      6.6292
C      9.8665     -9.5359      5.1647
C      5.4009     12.0876      4.3165
C      3.0784      3.7273     10.0073
C      0.7241      2.6511      1.1149
C     -1.0253      7.7437      1.6765
C      3.7455     -0.6060      8.4011
N      2.0903     -0.3542      3.7194
C      3.3733      1.5201     -0.5504
O      4.0949      6.1677      2.3923
C      9.3107     -6.3987     13.4996
H      6.0449      9.5408      5.8366
H     12.6186    -11.4162      8.1790
C      9.9062     -8.2947      2.8176
C     10.1865     -5.1764      9.0410
H      8.2296     -9.1470      8.6675
H      1.3779      1.5662      6.5854
H      7.3384     -8.0361     13.1718
H      8.5327     -3.7639      8.0698
C     -2.4342      9.6703      0.7255
H      4.9597     -7.5327      9.5225
H     14.3497     -6.2746      9.4423
H     12.1242     -3.4528      4.1860
H      1.5388     10.1182     -1.4579
H      2.7410      1.5637     -1.4414
H     11.5559     -9.5622      8.3088
C      2.2765      7.6524      2.5597
H      4.1327      2.2271     -0.8613
H     -1.8154     10.6598      2.5282
C      0.8520      9.3458     -1.4686
H      2.8610     10.5430      4.2550
C      4.2786      8.1161      4.2998
C      7.6869      7.3330      3.1465
C      8.4396      9.3881      1.7521
C      6.0198      8.6314      1.8517
C      4.5013      6.0062      6.3193
C      1.9872      5.0689      2.4550
C      5.8257     -6.6258     13.0330
C      5.5536      7.3852      4.1210
C      8.0673     -6.1548     13.6926
C      4.4406     -7.8123      7.4882
C      1.5084      5.0036      0.9247
H     10.2243     -6.9696      6.4080
C      6.3124      7.0111      5.4063
H      9.2746     -7.6955     13.3185
H      0.8277      1.7376      0.6824
C      6.9731     -7.2326     13.8032
H     12.3369     -9.6790      3.4716
O      7.4845      7.3577      5.6902
H      8.6966     -3.6551     11.7180
H      8.6270     10.4633      1.5578
H      1.7094      3.4272      3.4411
H     12.9002     -3.2866      2.2091
H      3.3685      4.1986     -0.0836
H      4.8763      4.7791      4.2165
C     -0.4675      7.3075     -1.1404
C      2.9207      6.3245      2.9957
H     15.5817     -6.8749      9.4338
C     10.8566     -8.2994      4.9579
C     13.5083     -6.0106      5.2249
H      4.8779      8.0795      7.6384
H      1.8500      1.7990      4.4982
C     14.3304     -7.3990      4.8589
H      1.8089     -1.4782      8.3952
H      1.8239      1.5937      2.4150
H      4.1151     10.8567      2.8704
H     12.4549     -6.2316      8.4693
C      8.1155     -6.6933      8.9797
C      4.2948      0.8954      8.3211
C      6.3322      7.7776      2.9028
C      9.2600     -3.4416      5.7622
C     12.9795     -6.5952      2.8369
C     11.5577     -6.5739      3.6438
H      3.7347     -6.7243     12.1729
H      9.6310     -9.6126      6.1310
C      2.0132      0.9384      8.8307
C     13.7968     -7.7100      3.4981
C      4.8413      3.6588      2.6407
H     14.0803     -8.5000      8.0409
H      7.2572     -5.3990      8.0202
C      6.6374     -9.1059     10.0819
H     10.2586     -0.5540      7.3304
H      7.0028     -2.5267      6.3678
C     15.1052     -6.2127      8.8715
C     11.1463     -7.3712      5.8884
C      2.7307      0.9355      1.9927
C     14.1687     -8.4019      5.9373
C     14.9413     -6.2662      7.4179
C      2.2942      4.4769     -0.2349
H     -1.5390      5.7625      1.6934
H      4.1666      2.4957      1.1582
H      3.7834      0.6619     -0.3460
H      8.5802     -7.5752      9.4393
H      7.2804    -10.4561      8.7928
H     11.3604     -2.9787      6.4225
H      4.9430      1.1195      3.3966
C     12.5506     -4.0484      5.0750
C      9.1064     -5.7778      9.6881
H      8.4885      9.5414      2.9172
C      8.4726     -1.2783      7.6983
H     10.0452     -8.1903      1.7641
H      8.9392     -2.6325      5.1006
H      5.9403      1.4091      9.7166
C     12.5674     -5.6789      7.4998
C     13.3849     -9.3847      5.6143
O      7.5176      5.5571      4.5583
C     11.2574     -4.8442      5.6111
C      6.5550      1.4402      7.3372
C      5.2087      1.7189      6.3454
C      3.3256      0.5109      5.9618
H      7.2642      2.3001      7.2250
H      5.7599     -9.1535      8.1853
H      7.6694     -2.9285      9.6407
H     12.6641     -3.7334      6.8488
H      6.2527     12.3690      4.8939
C     14.8211     -7.8081      7.2330
H     -0.8627      3.8782      1.9615
C      3.9414      5.2072      5.0985
C      3.3693      2.8085      9.1141
H      8.9301      8.4332      1.2058
C      8.6173     -5.7450     10.9675
H      3.7758     -7.4158      8.4153
H     -2.0583      6.5210     -2.1530
H      6.7198      0.4624      6.8671
C      3.8212      2.6081      4.5188
C      5.0517     10.1043      5.7830
C      6.5065     -0.4907      8.9542
C      7.5920     -3.3887      8.5256
C      5.7595     -8.2108      8.1276
C      6.0325      1.0037      8.6305
H     12.8379     -8.1431      8.7655
H      1.6544      3.6415     -0.9742
H      6.7888      9.5092      0.2007
H      8.3174     -8.7961     11.8712
H     11.5590     -9.8883      6.8386
C      1.6705     10.0735      0.7548
H      2.5719      4.6439      9.8259
H     10.0874     -3.5084      2.9480
