266

C     19.7365      8.6270     13.4217
N     -3.4090     10.1656      2.0257
C      3.9322      1.7214      7.1789
C      2.1878      2.3843      2.2412
C      7.4104      4.8286      2.1040
H     -3.3423      6.7322      2.7244
C      7.6558      3.2515      2.2839
C      3.4399      3.8986      5.4890
C     16.2489      7.0775     19.4177
C      6.6540      2.0178      3.9023
C     -6.8926      8.4022      9.7190
C     13.5991      8.7345     13.9360
N      0.3606      2.3077      6.2871
C      0.6388      6.3050      0.7120
O     -1.0641      2.5322      1.0318
C      3.0533      4.2187      6.9998
H     13.7745      7.2883     11.3780
C     15.5390      6.2176     17.3656
C     16.9131     10.3407     16.1824
H    -11.5170     13.8933     10.4356
H     -2.4408      2.7119      4.7605
H     17.5955      6.4468     15.6234
C     16.8566      9.0074     16.0306
H     -8.5792      7.2932     10.3536
H     -6.0810      8.4572     10.4918
H    -10.7140     17.5880      9.1003
H     -2.6581      6.2970      6.7834
H     -6.8421     14.8550      8.7441
C      2.9244      2.8940      7.9518
H      7.4289      2.6738      4.2855
O     14.1040     10.4955     15.5104
C     -5.1698     12.1995      9.1169
C      6.2215      6.0141      9.3589
H      3.2291     -0.2352      6.5145
H      4.1259      5.4163      8.4135
C      6.4406      2.6141      2.4447
H      5.7128      3.1594      7.5880
H     -8.7737     12.0943     10.0486
H      2.9371      7.5011      8.8468
C     17.6530     10.7466     17.4235
C     -3.0235      8.3568      5.1200
O      1.9666      8.6196      4.6890
C     -1.4083      8.3677      7.1508
C      8.7689      7.9015     11.7389
C     20.6352      7.4974     12.6728
C      6.5667      6.8333     -0.9466
H     16.8662      9.5114     14.0673
H      3.2737     -1.1661      4.6706
H     -5.5667      6.4068      7.1376
C      8.0371      2.9453      8.5440
H      1.1161      1.4414      1.1039
C      7.2629      6.2837     10.7039
C      8.0263      5.7628      2.9307
H      8.0527      7.8297      2.2693
C     -1.0668      6.8007      5.4382
H     16.7452      8.5126     21.2961
H     16.9552     10.8081     15.2619
H      2.6702      5.7757      0.7851
C     -3.4566     11.3360      7.6556
C      6.3358      4.7467      8.8378
C     16.1799      7.4568     18.0364
C      4.8373      5.4841     -0.3460
C     17.4080      8.7534     14.6444
H     -3.4472      7.3763      5.6394
H      7.5537      7.4345      4.1520
H     -9.4183     14.7379     10.8664
H     18.9356     12.9306     17.3270
C     -0.3402      3.5104      7.9118
H     19.2342     10.3447     14.3954
C     13.1246      8.9805     12.4969
C      1.6659      1.8698      8.1748
H     11.2372      6.5677     10.8513
C     -0.7188      6.0805      1.5043
H      5.5030      7.2593     -0.9079
H     18.8047      8.5980     12.7704
C     10.1296      7.3188     12.6517
O     15.4093     10.1735     13.8186
C     -5.5406      8.7122      8.5464
C     16.9758      8.2773     20.2256
C     -9.4484     14.5104      9.7625
C      2.4872      1.0249      4.9801
H     -4.2940     10.1186      2.8207
H     -3.2167     11.2451      1.9690
H     -6.6782     12.6774      6.7684
H      2.2149      5.8734      9.5572
C      4.2253      3.5409      3.2354
H     -2.8932      9.8457      8.2049
C     -2.5640      8.3546      0.7313
C     11.4085      6.8935     11.9022
H     -3.5898     11.8938      5.8769
C      5.3659      2.0760      4.8956
H     17.3840     12.8858     17.3636
C    -10.7258     12.3928      8.9119
C     -8.4498     11.2104      8.5106
C     -1.8388      4.8554      4.0261
C     16.6295      9.5272     19.4631
C      2.7679      3.6829      2.7165
C     -7.8351      7.0590      9.4714
H    -11.5447     11.7757      9.5100
H     15.1203      7.4153     13.1988
H      7.7635      4.3727      3.5293
O      5.6245      6.5600      6.4579
C      0.6222      8.1147      4.6318
H     -8.6047     10.4279      7.5923
C     -2.9195      8.4127      3.7253
C     -2.3613      7.2049      2.9269
H     -5.1182      9.1930      9.4671
H      8.5675      2.8740      2.4707
C     -2.5421      8.8549      8.0737
H      2.3569      3.4983      4.9025
H      4.0433      4.2466      1.2176
H     -0.5070      3.3590      8.9288
C      3.2974      1.4992      2.0364
C     -0.4009      8.3887      2.3853
O      3.9705      4.3446      0.1830
O      8.0735      4.0726     10.5244
C     -0.0533      2.8951      1.6997
C      0.4068      3.4223      4.0537
C     -6.1440     10.8259      7.4865
H     15.7641     10.1849     19.3849
H     -1.1146      9.6171      4.4335
H     12.6186      8.2185     10.6062
O      0.0107     10.0712      6.0786
C     -6.9763     11.2829      8.5723
C      0.8105      7.2013      6.9708
C     14.4233      7.5190     13.9754
H     15.1655      8.2948     15.6284
C      0.4539      7.5063      3.1458
H     -4.5530     13.1810      9.2115
C      2.5841     -0.1595      4.0102
C      0.4737      2.4690      7.5539
C     -2.9807     10.9532      6.2226
C     -2.4746      3.2403      5.6197
C     18.1957     12.1904     17.6750
C    -10.0767     17.0112      9.9456
C      0.8818      1.8099      1.9663
C     -1.5226      7.4383      1.7861
C     -9.1736     12.4035      8.9778
N      2.1045     -1.3071      4.4631
C      3.5194      1.2829      0.4004
O     16.8008      6.1717     15.0497
C      9.4573      5.9590      0.4145
H     18.3923      8.8537     18.5955
C     -2.3235      4.0307      2.9999
C     -2.8982      8.1772      9.2648
H      7.7414      2.5296      7.7114
H      1.6343      0.9833      7.3805
H      8.0573      3.0035     10.7562
H     -4.8358      9.8449      6.0880
C     -3.3370      9.3638      0.9026
H     -8.2306      7.0572      8.3969
H      1.3132      7.4290      8.9477
H     -0.9705      9.2611      2.8771
H     13.3494     10.3343     10.7642
H      2.4847      1.2222     -0.0512
H     -0.9064      3.8862      7.2412
C     14.7696      7.2866     15.3264
H      3.3473      2.4433     -0.2632
C     13.4480     10.1833     11.9053
H      7.2894      4.2258     11.1143
C      4.1470      8.2348      4.3195
C      7.6566      7.0633      3.1002
C     20.1140      9.9658     13.9721
C     18.8994      8.0809     14.6429
C      4.3622      5.8461      6.2297
C      1.9155      4.9392      2.5074
C      6.1256      5.9180      0.0508
C      5.5446      7.5851      3.9638
C      8.1927      6.3531      0.5781
H     14.0247     11.0744     12.6349
C      4.2419      4.9631      7.4113
C      1.5765      5.3035      0.9923
H     -3.3468      8.8749      7.0925
C      6.2138      7.4478      5.2917
H      1.4776      1.1905      5.4133
H     -2.6096      4.8969      2.0862
C      7.1170      5.5194      0.9241
H     -0.8333      3.3012      4.1469
O      7.4612      7.2594      5.5558
H      8.8669      8.8565     11.2835
H     20.7236      9.4808     14.9681
H      2.4026      4.3988     -0.6385
H      8.4985      1.9468      9.1461
H      4.7937      5.7030      4.0901
C     12.6279      7.8491     11.6504
H      6.1730      4.9047      6.8153
C     15.6340      6.2454     15.8746
H      0.0889      8.2194      8.6538
C     -1.7847      4.3705      5.3357
C      0.4906      7.0034      5.5192
H     -7.2491      9.4087      9.7647
H      2.8712      1.9298      4.6004
C      1.2119      5.6391      4.8565
H    -11.0253     12.2195      7.9100
H      2.6317     -0.6281      2.0585
H     13.7519      9.8790     16.2132
C     -5.0331      7.2749      8.0780
C     -8.5099     13.8615      8.5377
C      6.4230      7.4888      2.8697
C     -3.8035      9.8064      5.4053
C     -0.2173      6.1806      3.0331
C     -1.3847      6.2167      3.8586
H      1.2531      3.3129      0.1718
H      4.8782      5.4646     -1.6445
H     -2.4127      2.6210      6.5542
C    -10.8654     13.9397      9.4108
H     -1.7410     11.0542      5.8907
C      0.8459      5.0314      3.5700
C      5.4636      3.5434      2.6981
H      1.5722      4.6092      7.9396
H     18.2567      8.2578     20.2954
C      7.4207      4.0683      9.1522
H     -2.4457     11.9986      7.7651
H     -6.2923     11.3310      6.5735
C      2.0618      6.8369      8.7815
C     -1.7690      5.6540      6.2207
C      2.7372      0.2360      2.6076
C      0.8615      4.6366      5.8482
C      1.8746      6.3683      7.2848
C      1.4017      4.3359     -0.0648
H     -1.4652      5.2242      1.5890
H      4.2695      1.8530      2.3671
H     -2.3905      7.8748     10.2319
H     -4.6170      7.5425      7.2103
H      8.8551      3.2082      7.8705
H      7.2818      0.9714      3.8243
C     -0.5382      9.1520      5.0639
C     -3.7972      7.1615      9.2109
H      4.0786      6.2755      0.0672
H     -4.0586      8.7129      3.3428
C     -4.7700     11.2442      8.0472
H     -2.7263      3.1624      3.5823
H     -3.7985     10.2354      4.4277
C     -0.2055      7.8189      7.6404
C      0.6150      3.4145      5.4469
O      8.3816      4.9422      3.9378
C     -1.5192      8.2102      5.6807
C     -6.6750     13.6555      7.0973
C      5.2200      1.7489      6.4256
C      3.3060      0.7807      6.1312
H     -5.5936     13.8807      6.9924
H     -8.2038     16.1102      9.2180
H     -4.7062     12.0292      9.9450
H      0.7409     10.8752      5.8577
H     18.5373     12.1329     18.7342
C      1.6631      4.9584      7.0183
H      0.0667      3.9382      1.9349
C      3.9232      5.3635      4.9169
C     -9.4271     15.8858      9.2802
H     20.5832     10.7340     13.5269
H      0.3856      6.2136     -0.3330
C      8.3196      7.0816     10.5044
H    -10.9567     16.4242     10.3450
H     11.5324      5.7794     12.3833
C      4.4396      2.9430      4.5526
C     17.4759      9.5885     18.2823
C     -6.6210     12.4935      9.2518
C     -6.2361      9.1290      7.3607
C      5.6965      4.2724      7.4930
C     -7.0429     13.7332      8.4379
H     -1.3826      5.5661      7.2856
H     -3.8676      9.4754     -0.1166
H     -6.7352     12.2050     10.2880
H      9.8571      5.0536      0.9546
C     14.4110      9.9436     14.4337
H     -9.6181     17.5495     10.9241
