265

C      6.9601      8.5888     13.6599
N     -2.7760     10.6564     14.5449
C      3.6265      1.5449     19.9744
C      2.1872      2.3539     15.1056
C      7.6824      4.6682     14.5277
H      9.8264      6.5302      2.7115
C      7.6010      3.4276     15.5647
C      3.4768      4.1402     18.2604
C      3.3123      7.6785     19.4645
C      6.2212     15.1170      4.3198
C      5.8658      8.3376      8.4176
C      0.7609      8.5113     13.6388
N      0.1539     15.7843      6.2795
C      0.5008      6.0061     13.7700
O     -1.1239      2.5937     14.5874
C      3.1985      4.2368     19.8361
H      0.4230      6.8515     11.5125
C      2.8452      6.4682     17.2590
C      3.8639     10.5051     16.2033
H     11.1436      2.6327      6.7228
H      5.3553      6.1148     15.0008
C      4.1591      9.0375     15.7837
H      4.5626      7.4578      9.6544
H      2.1928     17.2762      9.8717
H      5.4482     14.4417      9.7087
C      2.8820      2.7712     20.5736
H      7.1896     15.0527      4.8752
O      1.3332     10.6285     15.4776
C      7.3795     11.8802      9.5421
C      6.2007      6.0764      9.4984
H      3.3955     -0.1466     18.9268
H      4.0895      5.1311      8.5474
C      6.3180      3.2041     15.8499
H      6.1554      3.8359      7.0705
H      3.7823     11.7124      9.5705
H      2.1346     20.5699      9.5170
C      4.6422     10.7766     17.3348
C     10.2193      8.7726      5.1878
O      2.2699     21.9934      4.4918
C     11.8403      8.3863      7.0988
C      8.8357      8.0643     11.7832
C      7.6273      7.6253     12.6706
C      6.5395      7.0897     11.7554
H      5.1826      3.6245     13.9507
H      4.6630      9.5059     13.6760
H      1.6395     -0.5176     18.4025
H      7.7614      6.0875      7.9641
C      8.1854      3.3215      8.8252
H      0.7665      0.6766     14.5920
C      7.1764      6.6640     10.4527
C      7.9385      5.6548     15.4213
H      8.3019      7.6207     14.5863
C     12.0460      6.9750      5.3502
H      3.3585      8.7228     21.2007
H      2.4382      5.6597     13.4959
C      9.2412     11.2253      7.8997
C      6.3166      4.7974      9.1088
C      3.0367      7.8820     17.8226
C      4.9927      4.9400     11.9627
C      4.7997      8.8828     14.5450
H      9.5902      7.9196      5.5730
H      8.0209      7.6267     16.2497
H      3.1929     14.1060     10.5121
H      5.3438     10.1289      8.5632
H     -1.4179      3.4692     14.3213
H      5.8603     12.2899     16.8364
C     -0.9693     16.0644      8.4763
H      8.0599     10.3075     13.7874
C      0.2342      8.8989     12.3226
C      1.4495     14.9050      8.0249
H     -1.2397      6.2545     10.9263
C     -0.6634      6.1474     14.9174
H      5.6067      7.6850     11.8173
H     10.5657      2.8958      5.3774
H      6.4981      9.1292     12.4985
C     -2.6412      7.2396     12.5866
O      2.6586      9.8568     13.8157
C      7.1849      8.3012      7.7282
C      3.7870      8.8243     20.3140
C      3.2374     14.3890      9.4146
C      2.8104      1.2962     17.4151
H      6.1468     12.8813      7.3429
H      2.7879     18.9578      8.9601
C      4.1835      3.5369     16.1435
C     -2.1731      8.1141     13.7106
C     -1.3437      6.8364     11.9313
C      5.2675     15.2080      5.3563
H      4.3169     12.9878     17.3019
C      1.5323     12.7120      8.6750
C      4.2376     11.6216      7.4575
C     11.0403      5.0139      4.5681
C      3.7354     10.1899     19.5796
C      2.7551      3.5038     15.8334
C      5.2965      6.9136      8.8755
H      0.9447     12.2471      9.2430
H      1.7103      6.9578     12.9287
H      8.7201      5.4705     17.0562
H      2.1650      2.8962     12.6915
O      5.6915      6.9192     19.3064
C      0.8272     21.2011      4.4238
H      4.6249     12.1427      6.5687
C     10.1218      8.5682      3.6804
C     10.6645      7.2122      3.2156
H      7.9539      9.8605      9.0467
H      8.2818      2.8700     16.0523
C     10.6846      8.3161      7.8251
H      2.4918      4.0934     17.9004
H      3.7896      4.7291     13.3472
H     -0.6134     15.9838      9.4261
C      3.2402      1.3579     14.7077
C     -0.0855     21.4034      2.0496
O      4.0809      4.0305     12.6110
O      7.4106      3.9811     10.9767
C      0.0331      2.8523     14.3242
C      0.2594     16.7448      3.9313
C      6.8367     10.8559      7.2432
H      2.8889     10.6264     19.2956
H     -0.6705     22.8264      4.0178
H     -0.5951      8.0837     10.4431
O      0.1321     23.0421      5.7389
C      5.4979     11.0610      8.1149
C     13.9222      7.4211      6.7233
C      1.3950      7.2262     13.7308
H      3.0982      8.0048     15.0673
C      0.6531     20.4944      3.1822
H      7.9890     12.3053     10.3017
C      2.3231     -0.0435     16.7617
C      0.2375     15.5031      7.5334
C      9.9366     10.9233      6.7347
C     10.7200      3.4005      6.2035
C      5.0176     12.2011     17.6971
C      3.0088     16.9073      9.8715
C      0.9812      1.8476     14.4180
C     -1.4205      7.5141     14.8496
C      3.2828     12.0421      8.6054
N      1.6643     -0.9932     17.5292
C      3.5284      1.3207     13.2363
O      4.3486      5.7808     14.7793
C      9.4242      6.0067     13.1947
H      5.5457      9.3215     18.9143
C     10.0843      4.3750      3.6815
C     10.1262      8.1526      9.1970
H      8.0375      3.8219      7.6804
H      1.9384      0.6614     19.2380
H      8.2523      3.5982     11.3044
H      8.3803      9.5026      6.5746
C     -2.9079      9.4328     13.8369
H      4.4929      6.7121      8.2126
H      1.1539     19.3383      8.9985
H     -0.2808     22.4563      2.2345
H      0.9037     10.0239     10.7440
H      4.2243      0.4539     13.2915
H     -1.9072     15.5730      8.4009
C      2.2224      7.1934     14.9911
H      2.6183      0.9217     12.5998
C      1.2081      9.6317     11.6729
H      7.8009      5.9388     11.0222
H      1.7558     -1.8515     17.3389
C      4.3475      8.2378     17.0611
C      7.7382      7.1054     15.4195
C      7.3758      9.7702     14.2243
C      5.8519      8.0146     14.5218
C      4.2941      6.2735     19.2364
C      2.0129      4.9208     15.5673
C      6.0117      5.8097     12.4245
C      5.5445      7.3313     16.9573
C      8.2209      6.3057     13.0469
H      1.9260     10.3956     12.2078
C      4.4293      5.0331      7.3780
C      1.6573      5.0837     13.9647
H      9.6339      8.6075      7.3740
C      6.3780      7.2089     18.2574
H      9.9984      4.7707      2.4612
C      7.2187      5.3198     13.1793
H     -0.9944     17.0788      3.8901
O      7.6305      6.9210     18.1181
H      9.2255      9.1455     11.6309
H      6.5683     10.3735     14.4701
H      0.7183     15.6175      3.7051
H      0.4852      3.9586     13.0105
H      4.6122      5.6502     17.3355
C     -0.2702      7.6797     11.5239
H      6.5670      5.4143      7.2166
C      2.9218      5.9794     15.6856
C     11.2150      4.7465      6.0634
C     13.5226      7.1976      5.2796
H      6.2242      8.8750      9.3061
H      3.7720      1.2873     17.1393
C      1.6736     18.9881      4.8293
H      1.4428     12.6344      7.6665
H      2.1039     -0.6018     14.5068
H      0.5463     10.8204     15.2238
H     10.6957      7.8938     10.2159
C      8.1751      7.2107      7.7307
C      3.8776     13.5099      8.3641
C      6.0946      7.1568     15.7483
C     10.0104     10.1930      5.3923
C     -0.0534     19.1800      3.2107
C     11.5905      6.2957      4.2523
H     10.1304     11.3810      8.7947
H      1.8125      4.5539     11.7810
H      9.7218      3.7274      6.1979
C      1.8181     14.1042      9.0834
H     11.0531     11.0254      6.7529
C      0.8328     18.0427      3.5020
C      5.1246      3.4802     15.0673
H      1.3645     17.4201      8.0760
C      7.3979      4.0429      9.6906
H     -1.8618     10.8516     15.3111
H      7.2563     11.7833      6.7792
C      2.2130     19.8488      8.7212
C     11.7458      6.0836      6.5670
C      2.6599     -0.0064     15.3289
C      1.1224     17.9389      5.9878
C      2.1950     19.8216      7.2665
C      1.5311      4.0433     12.8098
H     -1.5287      5.3089     14.8943
H      4.1084      1.1432     15.2523
H      9.9701      9.2584      9.6087
H      3.5886      2.2424     13.1449
H      9.2096      6.9044      7.2279
H      9.0867      2.6845      9.1437
H     10.8077     10.4294      4.7015
H      6.0639     14.0128      3.6244
C     -0.4031     22.2764      4.7951
C      8.7493      7.8108      9.1135
H      4.2395      5.7388     11.6415
H      9.1518      8.8970      3.2633
C      7.9255     10.8017      8.3912
H      9.8388      3.4042      4.0710
H      9.0488     10.3895      4.9678
C     12.9525      7.8673      7.6414
C      0.4807     16.6574      5.3674
O      7.8520      5.4619     16.7735
C     -1.3471     21.3487      5.6251
C      5.9999     14.0501      7.6686
C      5.0303     14.7830      6.6148
C      2.9056      0.8083     19.0042
H      6.8766     14.4726      7.8806
H      4.4400     15.8966      8.9403
H      0.3777     22.5204      6.5087
H      5.8557     12.0638     18.3688
H     13.2405      8.0005      8.6714
C      1.8994     18.0197      7.1769
H      0.3282      3.9469     14.1051
C      3.8146      5.5373     18.0075
C      3.4170     15.8553      9.0114
H      7.8747      9.5361     15.1939
H      0.0064      5.8522     12.8835
C      8.2157      7.8133     10.3683
H      3.2244     16.4639     10.8336
H     -1.3834      6.2400     12.8453
C      4.3899      3.3205     17.7753
C      4.5263      9.6656     18.4779
C      5.9972     12.1619      9.3755
C      7.2827      9.3750      6.8175
C      5.7621      4.4854      7.7806
C      5.2877     13.5065      8.9278
H     -1.1020     17.0948      7.9605
H     -3.5896      9.2550     13.1159
H      5.6397     11.9789     10.4125
H     10.0659      5.0535     13.5724
C      1.5262      9.9192     14.2419
H      3.5032     17.7416      9.6588
H     10.7892      9.4766      3.1343
