267

C     20.0100      8.6173     13.7108
N     -1.9218     10.3628      1.5845
C      3.7695      1.3668      7.0284
C      2.1453      2.5466      2.3399
H    -11.0997     14.1045     10.2132
C      7.2734      5.1603      2.1744
H     -3.3540      7.0999      2.3905
C      7.2812      3.5722      2.4871
C      3.3126      3.8546      5.6371
C     16.2021      7.4836     19.4726
C      5.8686      1.7254      3.7780
C     -6.8607      8.0392      8.9613
C     13.6946      8.6271     13.9457
N      0.3757      2.8844      6.3596
C      0.8332      6.1947      0.7930
O     -1.3805      2.7828      1.6345
C      3.2573      3.9602      7.0216
H     13.2538      6.8345     11.3529
C     15.6943      6.1986     17.5047
C     16.8255     10.1499     15.9952
H     -2.7485      3.1211      6.9476
H     17.5174      5.5634     15.8243
C     17.3766      8.9130     15.9283
H     -8.5698      7.0538     10.1301
H    -10.7738     16.0172      9.7628
H     -1.2391      5.6562      7.3711
H     -7.2816     14.1794      9.0391
C      3.1442      2.6348      7.7749
H      6.7920      1.3292      4.1551
O     14.1682     10.4505     15.6920
C     -5.3104     12.1066      8.8529
C      6.2204      6.1859      9.6168
H      2.0800     -0.0014      6.5593
H      4.0180      4.8649      8.5049
C      6.2700      3.0996      2.9248
H      5.6064      3.3472      7.3088
H     -8.9461     12.0102      9.2389
C     17.1444     10.5815     17.3652
C     -2.5355      8.6833      4.9684
O      2.2886      8.9518      4.7036
C     -1.3182      8.4618      7.0796
C      8.8631      8.0519     11.7271
C     20.6213      7.8452     12.6627
C      6.3643      7.2074     -0.8267
H      4.6288      3.7929      1.2484
H     17.3942      9.6928     13.9623
H      2.1241     -0.7061      5.6853
H     -5.1799      6.0725      7.5493
C      7.6932      2.6541      8.1923
C      7.0220      6.5250     10.7155
C      8.0879      5.6543      3.0989
H      8.4088      8.0593      2.2500
C     -0.9465      6.8103      5.2521
H     16.0171      8.5502     21.3618
H     16.2777     10.9211     15.1522
H      4.8455      6.0912      0.5088
H      2.7761      5.0237      1.0804
C     -3.0751     11.1362      7.7658
C      6.4576      4.9433      8.9454
C     16.2376      7.5786     17.8063
C      5.4105      5.0176     -1.0858
C     17.7547      8.7106     14.5610
H     -3.3676      8.1993      5.4401
H      8.4580      7.6705      4.1761
H     -9.2205     13.9483     10.3981
H     -7.2695      9.8181      8.6359
H     18.8551     12.2281     17.5357
C     -0.6501      3.4911      8.0938
H     21.7075     10.0657     14.1505
C     13.3707      8.3920     12.3764
C      1.7227      2.1895      8.2300
H     11.2026      6.0879     10.7640
C     -0.4965      6.1852      1.6929
H      5.6716      8.0498     -1.0907
C     10.1110      7.3444     12.4260
O     15.5138     10.0257     13.8136
C     -5.7336      8.0936      8.0471
C     16.9514      8.5374     20.5314
C     -9.3634     14.2114      9.3272
C      2.2241      1.0845      4.6312
H     -0.8296     10.9824      1.3590
H     -6.7228     12.5734      6.1920
H      2.8417      6.7970      9.6515
C      3.8915      3.6833      3.3351
C     -2.1978      8.3122      0.5026
C     11.1482      6.8320     11.7208
H      8.0609      2.0111      8.9006
C      5.0173      2.1858      4.9986
H    -10.9521     11.8359      9.9465
H     17.2845     12.7900     16.4250
C    -10.8106     12.5008      8.9267
C     -8.5053     11.1332      7.4532
C     -2.1690      5.0621      3.9728
C     16.8469      9.8855     19.5876
C      2.5684      3.7118      3.0675
C     -7.7802      6.9617      9.2440
H    -11.4593     12.3006      7.9186
H     15.5484      7.3844     13.7074
H      0.2074      3.6552     -0.0022
O      5.4350      6.9030      6.5963
C      0.8554      8.2228      4.4163
H     -8.0206     11.4678      6.6985
C     -2.5559      8.7338      3.5327
C     -2.1892      7.4708      2.8703
H     -5.0964     10.0001      8.8749
H      8.3017      3.4179      3.0448
C     -2.5066      8.3360      7.8386
H      2.4017      3.7937      4.8198
H      3.4041      5.2528     -0.3999
C      3.0125      1.3138      1.8459
C     -0.2857      8.5220      2.1691
O      4.0806      4.6115     -0.5619
O      7.5593      3.7410     10.3533
C     -0.2034      3.2047      1.7821
C      0.1075      3.8988      4.1376
C     -5.9814     10.4282      7.2566
H     15.8161      9.7398     19.3514
H     -0.7271      9.9913      4.3168
H     12.5328      8.2877     10.3653
O      0.4792     10.1757      6.0658
C     -7.2006     10.6933      8.1405
C      0.9818      7.4732      6.7308
C     14.5791      7.4700     14.2198
H     15.2191      8.4892     15.8755
C      0.6365      7.5048      3.2276
H     -5.0613     12.9981      8.2070
C      2.4008     -0.2360      3.8958
C      0.7593      2.9299      7.6372
C     -2.3315     10.8916      6.6385
C     -2.3224      3.2092      5.9157
C     17.7285     12.3129     17.4308
C     -9.8342     16.6978      9.9293
C      0.8219      2.2766      1.9637
C     -1.2492      7.6406      1.6326
C     -9.4132     12.1395      8.4212
N      1.8706     -1.2882      4.6160
C      3.3462      1.8197      0.3712
O     16.9407      6.3255     15.5389
C      9.4368      6.1532      0.2645
H     19.0556      9.8211     18.5643
C     -2.4046      4.2654      2.9155
C     -2.8542      8.2352      9.2648
H      7.6065      2.7683      7.0204
H      1.6543      1.3438      7.0972
H      8.1282      2.8819     10.4066
H     -4.6696      8.8798      6.7726
C     -2.6186      9.6613      0.5528
H     -8.6100      6.5232      8.8665
H      1.1501      6.4223      9.1687
H     -0.6318      9.3645      2.5520
H     14.2313      9.4789     10.5952
H     -2.1090      3.6161      1.6623
H     -1.1156      3.0255      8.8358
C     14.9243      7.5168     15.6026
H      2.6400      1.9655     -0.6714
C     14.0041      9.4240     11.7594
H      7.1582      5.5423     11.2481
H      2.5633     -2.2045      4.8369
C      4.5186      8.3905      4.5569
C      7.9333      7.1689      3.1496
C     20.5690      9.8890     14.0048
C     19.0637      7.9570     14.5264
C      4.1545      6.1276      6.6258
C      1.8872      4.9557      2.7243
C      5.7829      5.7671      0.0343
C      5.7270      7.5649      4.1491
C      8.1476      6.5649      0.5991
H     14.7423     10.0799     12.2126
C      4.2845      4.9294      7.5386
C      1.7708      4.9273      1.1623
H     -3.4131      8.8363      7.1117
C      6.3493      7.1040      5.2720
H     -2.9025      4.9817      1.9750
C      7.1040      5.6651      0.7922
H     -0.7867      3.5570      3.7025
O      7.5711      7.0865      5.7537
H      9.2695      9.1839     11.7328
H     20.6490     10.6190     13.2383
H      0.6323      3.1496      3.7641
H      1.6013      4.4745     -0.7210
H      4.6019      5.3648      4.5888
C     12.4023      7.4504     11.4535
H      6.4259      4.7981      6.9567
C     15.6628      6.2461     15.9303
C     -1.9314      4.7574      5.4899
C      0.6747      7.0866      5.2850
H     -6.5791      8.3633     10.0445
H      2.7566      1.8934      4.4625
C      1.3483      5.8589      4.8992
H      2.6358     -0.8045      1.8360
H     14.6533     11.3921     15.8168
H     -2.0590      7.4932      9.7768
C     -4.7876      6.9617      8.0270
C     -8.9206     13.5145      8.1408
C      6.5820      7.9017      2.9301
C     -2.6876     10.1579      5.3988
C     -0.2146      6.1767      3.2093
C     -1.5385      6.3729      3.8292
H     -2.5476     11.7098      8.3947
H      1.5736      2.8713     -0.0720
H      5.4414      4.0516     -1.5132
H     -2.8945      2.8765      5.1292
C    -10.8391     13.9503      9.1505
H     -1.5110     11.5553      6.3404
C      0.7061      5.2543      3.6166
C      4.9406      3.4761      2.5103
H      1.3283      4.1787      8.1439
H     17.6625      8.1706     21.2697
C      7.5494      3.9808      8.9334
H     -2.7003     11.1205      2.0270
H     -6.2577     11.0500      6.4506
C      2.1827      6.7485      8.7914
C     -1.5220      5.7509      6.2625
C      2.1477      0.1231      2.6860
C      1.1762      5.0706      6.2374
C      2.0734      6.9914      7.4576
C      1.5580      3.8577      0.1228
H     -1.4080      5.5488      1.4344
H      3.9637      1.0520      2.3476
H     -3.2961      9.3717      9.5011
H      3.6933      2.8104      0.5818
H     -3.8663      7.0435      7.5007
H      6.7621      2.1907      8.1647
H     -2.0523     10.7237      4.5605
H      5.2703      1.1133      3.2101
C     -0.0291      9.2643      5.0137
C     -4.0129      7.3593      9.3648
H      5.2447      5.4837     -1.9928
H     -3.8715      8.6785      3.3766
C     -4.6704     10.7488      8.1264
H     -3.2932      3.2259      3.1901
H     -3.8341     10.5270      5.4793
C      0.0114      8.1397      7.6379
C      0.2377      3.9736      5.7523
O      8.5434      5.2504      4.1831
C     -1.3310      8.1331      5.7035
C     -6.7848     13.5639      6.7791
C      4.9925      1.4706      6.0973
C      2.2897      1.0560      6.2307
H     -5.8736     14.0642      6.5945
H     -7.7054     16.0747      8.9342
H     -4.6041     11.9217      9.9257
H      0.0967     11.0214      5.8362
H     17.0690     12.3876     18.2196
H      0.3023      8.4847      8.6065
C      1.9414      4.6725      7.3109
H     -0.2772      4.1205      1.5439
C      3.7037      5.4589      5.3526
C     -8.9572     15.6019      9.0683
H     19.9022     10.3048     14.8405
H      0.8757      6.2334     -0.3612
C      8.3194      7.3357     10.5339
H     -9.7650     16.9520     10.9211
H     11.8767      6.1385     12.1511
C      4.0719      3.1285      4.6970
C     17.7926      9.6938     18.4104
C     -6.7482     11.9987      9.0320
C     -5.6445      9.0202      7.0986
C      5.6454      4.4466      7.4763
C     -7.3031     13.2057      8.3522
H     -0.7518      4.5755      8.6133
H     -3.3391      9.8545     -0.1360
H     -7.4895     11.4777     10.0175
H      9.9310      5.2485      0.7455
C     14.4876     10.0375     14.4142
H     -9.8591     17.5098      9.4054
H     -2.7322      9.5364      3.0298
