260

C     19.8963      8.9989     14.1172
C      4.0847      1.7072      7.0275
C      2.2605      2.9275      1.3293
C      7.2183      4.8495      2.4266
H     -3.6353      3.8436      2.7993
C      7.0938      3.6477      3.0571
C      3.5099      3.9374      5.4463
C     -6.0685      9.7132     10.1203
C     15.9269      7.2334     19.4666
C      6.0335      1.6371      4.0221
C     -7.0747      8.9414      9.3195
C     13.7571      8.9167     13.7588
N     -0.4036      2.6791      6.4971
C      0.5047      6.1259      0.7012
O     -1.6641      2.6516      2.0679
C      3.1333      4.0951      6.8983
C     15.4263      6.0543     17.5304
C     16.6175     10.4034     16.8132
H    -11.8569     13.9717      9.5243
H     -3.5680      3.2376      4.8939
H     17.2705      5.6692     15.1386
H     -6.7668      9.4701     12.0002
C     17.0923      8.9885     16.2943
H     -8.3825      8.4567     10.7338
H     -5.3505     10.4790      9.5486
H      8.1349      3.4399      3.6728
H     12.4965      6.6828     11.0373
H     -0.5812      5.3238      6.6060
C      2.8594      2.8997      7.7799
H     -2.7552      9.6614     -0.9313
H      6.9767      1.6939      4.1634
O     15.7038     10.2117     14.6146
C     -4.5968     12.8023      8.8975
C      6.9197      6.0606      9.3892
H      2.8599      0.3720      6.6571
H      2.7130      5.9341      9.6936
C      5.9638      2.5934      2.7380
H      6.2028      4.2948      7.6111
H     -5.5508      8.8748     10.7618
H     -7.8581     11.0268      9.2436
H     -8.5816      7.1845      9.3376
C     17.5054     10.7258     17.7229
C     -3.0428      8.8298      4.7140
O      1.9151      8.6697      4.8801
C     -1.7917      8.0159      7.1271
C      8.6197      8.3094     11.9949
C     20.2195      8.0169     12.9138
C      6.1881      7.2737     -0.9022
H      5.1787      4.1493      1.6417
H     17.9679     10.0392     14.5028
H      1.8614     -0.9375      3.0259
H     16.1010     11.0269     14.1424
C      7.1561      6.7462     10.9325
C      7.6779      5.7376      3.3498
C     -1.1607      6.8316      5.1699
H     15.2154      8.6183     20.7253
H      4.3921      0.6809      2.8003
H     15.0257      7.1858     13.2813
C     -2.8318     11.2552      7.5634
C      5.7767      5.2967      9.2829
C     15.8071      7.3865     18.0199
C      4.5755      6.1160      0.4379
C     17.8537      9.1727     15.3447
H     -3.7630      8.2995      5.1974
H      8.5446      7.4364      4.2453
H     -9.7044     14.1242     10.4365
H     -6.2911     12.1650      9.9989
H     18.5352     12.3074     16.5472
C      0.0718      3.7511      8.5580
C     13.2100      8.3247     12.6088
C      1.6500      1.8815      7.7506
H     -2.0739      6.1102      9.1516
C     -0.6838      6.3970      1.5839
H      5.2419      7.6442     -1.4181
H     -1.9954      2.6635      4.2161
H     -8.1366     10.0325     11.0287
C      9.9148      7.6392     12.8109
O     14.5269     11.0663     12.8872
C     -6.2524      8.4403      8.1366
C     16.0164      8.6144     19.9427
C     -9.4234     14.3774      9.4166
C      2.7865      1.5884      4.9997
H     -1.1455      9.8516     -0.5858
H     -7.1320     12.0964      6.7527
H     -9.7844     17.1804     10.8225
C      3.8225      3.1932      3.3133
H     -4.1448     10.2600      5.2328
C     -2.1281      8.5363      0.5916
C     10.7760      7.0777     11.8235
H     -1.5272      9.4535      6.9705
C      5.1811      2.2666      5.0307
H      3.8372      0.1099      5.3047
H     -4.4854     13.6149      8.2662
C    -10.2885     12.3382      8.5104
C     -8.1286     10.9086      8.1173
C     -2.2384      5.3043      3.5919
C     16.8311      9.6473     19.5729
C      2.3381      3.5492      2.8217
C     -8.2916      8.3390      9.6263
H     16.0247      8.2033     14.0093
H     -2.3540      4.4399      1.6286
H     13.7835     11.6947     12.8257
H      2.2296      3.9582     -0.7063
O      5.7522      6.7954      6.5585
C      0.6381      8.1073      4.5694
C     -2.5744      8.6481      3.4430
C     -2.3246      7.5161      2.7920
H     -7.0103      8.1960      7.3042
C     -2.9410      7.4254      7.6867
H     13.5473      8.3360     10.5458
H      6.5238      1.9685      2.0118
H      0.8189      4.2891      9.0359
C      3.3761      1.8429      1.2156
C     -0.0349      8.6559      2.1159
C     -0.3053      3.2349      1.8990
C     -0.3217      4.0729      4.2452
C     -5.3855     10.8060      7.0617
H     -4.0041      7.5555      7.4268
H     16.4135     10.6423     19.7318
H      0.1224      5.9650     -0.3394
O      0.0735      9.5462      6.3889
C     -6.7437     11.4672      7.6156
C      0.4913      7.2517      6.8014
C     14.9945      7.8157     14.2033
H     15.7293      8.3669     16.1594
C      0.8013      7.7316      3.1046
H     -4.6030     12.7279     10.0042
C      2.5608      0.7403      3.7400
C      0.2218      2.6477      7.6661
C     -2.2470     10.4691      6.4019
C     -2.4479      3.2939      4.9001
C     18.2491     11.8997     17.4568
C     -9.6774     16.9947      9.8594
C      0.7925      2.4444      1.3007
C     -1.2494      7.7493      1.5430
C     -8.9367     12.1253      8.2743
N      1.9562     -0.2963      3.7697
H      3.8574      0.5434     -0.0924
C      2.9841      1.1307      0.0408
O     16.8925      6.0829     15.9346
C      9.2858      6.5635      0.6554
H     18.6693      9.2680     19.0475
H     -0.3565      1.7077      8.2078
C     -2.9516      4.4862      2.6329
C     -2.6658      6.9953      9.1286
H      1.4893      1.0132      6.9239
H      7.5771      4.6381      0.6758
H     -5.1269      8.7900      6.8495
C     -2.1147      9.7250     -0.1750
H      4.6913      5.6478      9.8661
H      2.3387      7.9215      9.2570
H     15.0130      8.7701     11.8086
H      2.6901      1.9564     -0.7420
H     -0.4802      3.8430      9.5377
C     15.0426      7.4932     15.6649
C     13.9777      8.6031     11.5072
C     -7.0723     10.1928     11.1771
H     15.4924     10.6471     16.9377
C      4.3295      8.2482      4.6266
C      7.9979      7.1231      3.3957
C     21.0840      9.2955     14.9332
C     19.1146      8.5103     15.1657
C      4.5139      5.7051      6.2447
C      1.6169      5.0446      2.7007
C      5.9073      6.1287      0.0586
C      5.9255      7.3918      4.3450
C      7.8895      6.7516      0.6808
C      4.2637      4.9212      7.4391
C      1.3932      5.1898      0.9608
C      6.4722      6.7787      5.4511
H      9.6304      5.6292      0.5393
H      0.7852      1.4528      2.0521
C      7.0276      5.5401      0.9924
O      7.6738      6.4274      5.7067
H      8.5589      9.4753     11.9712
H      1.8918      2.8719      3.4809
H     -0.5089      9.3436      3.0097
H      3.6579      4.1302      0.1678
H      4.9034      5.2113      4.2454
C     12.1315      7.4142     11.7465
C     15.5138      6.1000     16.0103
H      1.0505      6.8815      9.2130
C     -2.0845      4.7122      4.9448
C      0.2193      6.9067      5.4895
H     -9.2012      8.9714      9.7706
H      1.7231      1.8234      5.3282
C      1.0807      5.6930      4.8993
H      2.7315     -0.2054      1.9280
H     16.6858     10.9749     15.7566
H     -0.3434      7.5287      8.7391
C     -4.8485      6.2712      8.7149
C     -8.4156     13.7123      8.3195
C      6.6465      7.5816      3.0919
C     -3.1056     10.2595      5.1703
C     -0.1438      6.3894      2.9286
C     -1.5185      6.5952      3.7036
H      3.9655      7.0502      0.5060
H     -2.5816      2.7743      5.9872
C    -10.8745     13.7492      9.0336
C      0.4688      5.1053      3.6511
C      4.9315      3.4369      2.3958
H      1.0903      4.8396      7.9439
H     -5.8225      7.5895      8.5865
H     -2.0527     11.2246      8.4286
H     -5.2123     10.8050      5.9668
C      2.0852      6.7210      8.9292
C     -1.6330      5.5348      5.9508
C      3.2573      0.8675      2.3679
C      1.2407      4.4040      5.7387
C      1.9240      6.5349      7.3017
C      2.5175      4.0173      0.4360
H     -1.4038      5.9460      0.9560
H      4.3243      2.3521      0.8653
H      2.0543      0.6571      0.5832
H     -1.3163     10.7997      5.9817
H      5.9184      0.6861      3.7159
C     -0.4059      8.9171      5.0973
C     -4.0129      7.2155      9.6203
H      4.1984      5.2074      1.0973
H     21.9731      9.8663     14.2943
C     -4.1498     11.4490      7.9200
H     -2.8987     10.9252      4.0068
H     -6.2279     14.2245      8.9838
C     -0.4818      7.4980      7.7338
C      0.1052      3.4835      5.5148
O      8.5699      5.1201      4.4210
C     -1.7125      8.1124      5.4331
C     -6.3869     14.1885      6.8090
C      5.2488      2.0532      6.3253
C      3.4076      0.8952      6.0138
H      9.0056      6.0892      4.2846
H     -5.2994     14.5982      7.2240
H      5.5392      3.0963      8.2508
H     -4.2453      9.2729      8.1517
H     18.3721     12.5188     18.2123
H    -11.1997     11.9959      7.9152
C      1.7646      4.9569      7.0028
H     -0.5711      4.2493      1.4685
C      4.0633      5.0602      4.9948
C     -9.8099     15.8636      9.1881
H     21.0252     10.2385     15.3968
C      8.3698      7.4525     10.8113
H      3.3561      5.5270      8.1291
H     10.9142      6.0452     11.5623
H     -6.3319     13.2581      6.2723
C      3.8449      2.6741      4.6592
C     17.7377      9.3875     18.4570
C     -6.2847     12.2741      8.7992
C     -5.2334      9.3792      7.6428
C      5.4177      4.2118      8.2310
C     -6.9193     13.7787      8.3504
H     -0.1308      4.6595      8.1169
H     -2.0405      6.8649     10.1087
H      0.6066      1.8645      0.5119
H     19.5782     10.0151     13.7838
H      7.4628      5.7106     11.2473
H     -0.7926      1.8062      6.1280
C     14.5652     10.0810     13.8869
H    -10.1598     17.8850      9.4459
H     -2.9367      9.6754      2.8276
