261

C     19.5267      8.3755     13.5770
N     -2.5347     10.4381      1.6912
C      3.7784      1.5454      7.0805
C      2.0096      2.4778      2.2721
C     -5.6548     17.7614      1.9032
H     -3.0507      6.2645      2.9755
C     -5.3594     16.5247      2.6063
C      3.6219      4.0174      5.3360
C     16.4839      7.4259     19.5290
C     -6.6958     14.8835      3.9657
C     -6.9250      8.2661      8.5831
C     13.5578      8.6796     13.6733
N      0.0557      2.7240      6.1488
C      0.5840      6.0473      0.7549
O     -1.3582      3.0053      1.4205
C      3.1834      4.0833      6.9316
H     13.5101      6.7918     11.5914
C     15.7462      6.4217     17.2526
C     16.7709     10.5921     16.4366
H     -2.3876      3.3097      7.1546
H     17.2042      6.6750     15.0442
C     17.1992      9.3365     15.9798
H     -8.4961      7.6953      9.5816
H     -0.8610      5.9373      7.5882
H     -7.2419     14.2264      9.4788
C      3.0761      2.8901      7.7360
H     -5.5935     14.9220      4.5063
O     14.1899     10.4694     15.4386
C     -5.4380     11.7591      9.4365
C      5.9929      6.0908      9.6459
H      3.2044     -0.1769      6.0724
H      3.8630      5.2378      8.3429
C     -6.4640     16.2083      3.2813
H      6.1139      3.2543      7.6817
H     -9.6514     11.5783      9.1999
H      2.2160      8.0837      9.0406
C     17.3530     11.0705     17.7220
C     -2.7580      8.6852      5.0861
O      2.2170      8.9060      4.6056
C     -1.2803      8.4572      7.1331
C      8.8358      7.8974     11.7948
C     20.5897      7.5675     12.6924
C     -6.3290     19.7523     -0.9665
H     -7.3241     16.9089      1.5441
H     17.9288      9.4219     13.7990
H      1.9564     -1.2851      5.4831
H     -5.2685      6.2624      8.5376
C      8.0370      3.2655      8.7386
H      0.3853      1.1023      1.6085
C      7.1587      6.6299     10.4171
C     -5.1906     18.7666      2.6120
H     -4.7970     20.6344      1.6009
C     -1.0501      7.0046      5.5423
H     16.0141      8.6882     21.1961
H     16.5670     11.4047     15.5653
H      2.9461      5.6020      0.5830
C     -3.6320     11.3245      7.9070
C      6.2871      5.0017      8.8097
C     16.0594      7.8233     17.4333
C     -7.8627     18.0539     -0.9132
C     17.6026      8.7454     14.6496
H     -3.6780      8.3049      5.6532
H     -4.6541     20.4571      3.6642
H     -9.1344     14.1920     10.5094
H     -8.0916     10.3017      8.7575
H     18.4364     12.3884     16.4611
C     -0.8994      2.9781      8.4809
H     20.8359     10.2917     13.3778
C     13.3190      8.7459     12.0422
C      1.6502      2.4102      8.1312
H     11.6322      6.2128     11.0223
C     -0.6592      6.0209      1.6952
H     -7.1092     20.5310     -1.3226
H     18.8359      8.6209     12.7864
C     10.2088      7.4050     12.4990
O     15.8053     10.0284     13.9062
C     -5.8740      8.1185      7.6280
C     16.7600      8.7377     20.3766
C     -9.5304     14.5436      9.5396
C      2.6806      1.3395      4.6006
H      3.0679      6.4532      9.6156
C      4.0815      3.4112      3.1867
C     -2.3126      8.1613      0.8539
C     11.4986      6.9045     11.9698
C     -7.6281     15.0288      5.0774
H     17.8698     13.3572     17.4297
C    -11.1355     12.6644      8.6088
C     -8.7607     11.3274      7.3361
C     -2.0306      5.3149      4.3506
C     16.7190     10.1837     19.4465
C      2.6445      3.6390      2.8037
C     -7.8188      7.1736      9.1583
H     14.8015      7.3589     12.7036
H     -4.1968     19.0359      4.6498
H      2.0450      3.0121      0.0534
O     18.7714      6.7271     19.2929
C      0.6995      8.3863      4.4083
C     -2.9111      8.4897      3.4726
C     -2.4436      7.0791      2.9848
H     -4.8206      9.8524      9.0154
H     -4.5564     16.4919      3.2262
C     -2.3973      8.7985      7.8017
H     -9.4413     17.4298     -0.7371
H     -0.1582      2.7031      9.4755
C      3.0662      1.3121      1.7957
C     -0.2930      8.5784      2.0065
O     -8.5571     17.0609     -0.4182
O      7.4437      3.6469     10.9086
C     -0.1216      3.2646      1.6686
C      0.2621      3.8323      4.0032
C     -6.0395     10.4992      7.4098
H     15.8310     10.4543     18.7030
H     -0.4675      9.9442      4.0194
H     12.7824      7.8969     10.2264
O      0.2049     10.1017      5.8656
C     -7.4206     10.9258      8.2022
C      1.0214      7.4265      6.8727
C     14.3062      7.3090     13.7480
C      0.6166      7.5649      2.8984
H     -4.7333     12.7131      9.7769
C      2.6034      0.0938      3.7416
C      0.3668      2.5796      7.6007
C     -3.0017     10.8493      6.7595
C     -2.1172      3.6072      6.0982
C     18.0801     12.3116     17.5208
C     -9.7555     16.8148     10.1693
C      0.7522      2.1396      1.7530
C     -1.4904      7.4529      1.7693
C     -9.8528     12.3383      8.2660
N      2.1156     -1.0419      4.5606
C      3.7535      1.5927      0.3623
O     16.7920      5.8633     15.0775
C     -3.3968     18.9911      0.1588
H     18.7929      9.8808     18.5395
C     -2.7083      4.4779      3.6102
C     -2.7535      8.3384      9.2699
H      7.4270      3.3755      7.7819
H      8.1174      3.0944     10.9570
H     -4.5641      9.5190      7.1512
C     -3.0485      9.4368      1.0349
H     -8.2275      6.9003      8.0668
H      1.1116      6.7482      9.2139
H     -0.6973      9.5839      2.5326
H     14.0890      9.6798     10.6647
H      4.6197      1.2053      0.1460
H     -1.9556      2.8394      8.4169
C     14.9343      7.1851     14.9655
H      3.3810      0.8412     -0.5935
C     14.1717      9.7054     11.6398
H      7.7954      5.7391     10.5924
H      1.6440     -1.6107      3.9521
C     17.5261      8.1281     17.1584
C     -5.3313     20.1782      2.5127
C     20.1732      9.6021     13.9934
C     18.6357      7.7986     14.5142
C     17.4063      6.1023     19.2670
C      1.9287      4.8972      2.5038
C     -6.9693     18.7375      0.0042
C     18.4414      7.1431     16.8728
C     -4.7670     19.2130      0.5113
H     14.4279     10.5442     12.3859
C      4.3822      4.9535      7.4205
C      1.8259      5.0299      0.9676
H     -3.0017      8.4991      6.9690
C     19.1936      6.9283     17.9729
H      1.7493      1.7587      4.4008
H     -2.4978      3.9958      2.6856
C     -5.7634     18.2599      0.6115
H     -0.8071      3.9183      4.3657
O     20.5688      7.3256     18.2445
H      8.8130      8.9465     12.0273
H     19.4295     10.4544     14.1794
H      0.5784      3.7462     -0.5898
H      4.5534      4.8927      4.1657
C     12.7769      7.6287     11.3575
H      6.4145      4.8995      7.0828
C     15.6495      6.1080     15.6189
C     -1.7410      4.9310      5.9235
C      0.7066      7.1878      5.3911
H     -7.6304      8.9289      9.4939
H      3.4475      2.0051      3.8569
C      1.3960      5.9965      4.9423
H    -11.7267     12.4962      7.8363
H      1.9981     -0.7066      2.0446
H     13.3714     10.6690     15.6596
H     -1.9508      7.6861      9.5093
C     -4.8300      7.2332      8.0246
C     -8.9773     13.6214      8.3263
C     -6.7045     20.1452      2.6961
C     -3.1737      9.9931      5.4600
C     -0.0518      6.2836      3.1047
C     -1.2688      6.4889      4.1323
H     -3.1376     11.5900      8.8401
H      2.4456      4.7856     -0.7211
H     -7.1770     18.0998     -1.9774
H     -3.2403      3.3936      5.4216
C    -11.0289     14.2007      9.1035
H     -2.0917     11.1782      6.7324
C      0.8813      5.1644      3.5698
C     -7.7090     16.4058      2.3899
H      1.3463      4.7324      8.0148
H     18.0660      8.4105     20.6636
C      7.2505      3.9292      9.5355
H     -1.3949     10.7608      1.4929
H     -6.1410     11.2706      6.7042
C      2.3160      6.9761      8.9098
C     -1.2437      5.9173      6.5472
C      2.3127      0.1808      2.4013
C      1.3740      4.9505      5.9769
C      2.4381      6.8439      7.2329
C      1.6414      4.1195     -0.1439
H     -1.4584      5.3692      1.4924
H      3.9525      1.2519      2.3486
H     -2.9774      9.1958      9.9352
H      3.8843      2.8094      0.2192
H     -3.9276      7.0139      7.2577
H      8.9548      2.4438      8.9458
H     -2.6880     10.9269      4.9792
H     -6.6957     14.3214      3.1406
C     -0.4879      9.2591      4.8221
C     -4.1943      7.7749      9.2015
H     -8.5152     18.8413     -1.1118
H     -3.8575      8.8542      3.5562
C     -4.8410     10.8535      8.4547
H     -3.7145      4.1463      4.3576
H     -4.0953      9.9033      5.0707
C      0.0665      8.0742      7.7062
C      0.4746      3.8203      5.4073
O     -4.6863     18.5028      4.0216
C     -1.4051      8.4103      5.5330
C     -6.6742     13.8226      7.3601
C     -7.7476     14.4154      6.4466
C      2.8494      0.7877      6.1235
H     -5.8137     14.6889      7.4237
H     -8.4040     15.9412      8.6543
H     -5.4404     11.2025     10.2904
H      0.3128      9.3770      6.6280
H     18.9782     12.2362     18.2877
H     -0.3079      7.3616      8.6212
C      2.1369      5.2369      7.1642
H      0.5056      4.1632      1.6851
C      3.9169      5.4910      4.9795
C     -9.3056     15.8526      9.1247
H     20.4682      9.1655     14.8654
H      0.4596      5.7795     -0.1992
C      8.2436      7.5564     10.4225
H     -9.9648     16.4740     11.0353
H     11.8768      6.3421     12.6424
C      4.2190      2.9114      4.4772
C     17.7945      9.9873     18.5349
C     -6.7931     12.0600      9.3026
C     -5.5162      9.2173      6.8987
C      5.6164      4.3524      7.7515
C     -7.5382     13.3332      8.6587
H     -1.2515      4.1236      8.2238
H     -4.1985      9.2339      1.0792
H     -7.3380     11.9919     10.3054
H     -2.8495     18.1200      0.4406
C     14.7587      9.5475     14.2784
H     -8.6475     17.1344     10.3163
H     -2.3357      9.2315      3.2656
261

C     19.8512      8.6595     13.5825
N     -3.0127     10.2545      1.8021
C      4.2010      1.5065      7.3078
C      2.3436      2.5912      2.0731
C      7.2371      4.9963      2.2717
C      7.7608      3.5760      2.5211
C      3.4324      3.9029      5.3965
C     16.0056      6.8351     19.6525
C      6.3579      1.8248      4.0694
C     -7.1981      8.1154      8.9562
C     13.6640      8.7648     13.7255
N      0.6212      2.4553      6.2109
C      0.6314      6.3881      0.6401
O     -1.4518      1.8684      1.1965
C      3.0615      3.9357      6.8385
H     12.9624      7.6303     10.7715
C     15.7184      6.2150     17.3685
C     16.4979     10.4495     16.1937
H    -11.2373     13.9806     10.0741
H     -2.3809      2.8848      4.8626
H     17.4505      5.1824     15.0639
C     16.7633      9.0960     16.0620
H     -8.6746      7.5099      9.9420
H     -7.6854      9.0642      9.4061
H     -6.3062     14.6025      8.7531
C      3.1589      2.8140      7.8152
H      7.2769      1.6796      4.5660
O     14.4858     10.8317     15.3558
C     -4.5491     12.4535      8.7342
C      6.1771      6.0012      9.8953
H      2.9226     -0.1929      6.1885
H      3.6069      5.4724      8.4806
C      6.5926      2.9625      3.0474
H      5.8912      3.5652      7.7157
H     -4.0660     11.7034      9.3739
H     -8.8831     11.8702     10.1583
H      2.7934      6.0471      9.1896
C     17.1677     10.8212     17.3041
C     -3.0492      8.4887      4.9703
O      1.9532      8.6095      4.9622
C     -1.6224      8.0279      7.1906
C      8.8791      7.6164     11.8670
C     20.6670      7.5960     12.8593
C      6.6021      6.8098     -0.8388
H      5.4702      3.8723      1.4707
H      2.0698     -1.1684      5.6734
H     -5.7623      6.6348      8.8052
C      8.0043      2.8623      8.9794
H      0.8521      1.4109      0.8533
C      7.1012      6.6798     10.8134
C      8.0182      5.8273      3.1465
H      7.9472      7.6028      1.8187
C     -1.2536      6.7285      5.0715
H     16.5474      8.5866     21.3367
H     16.3590     11.2926     15.2954
H      2.5487      5.1536      0.2886
C     -3.0185     11.5168      7.2095
C      6.3402      4.9443      9.2121
C     15.8236      7.6360     18.0971
C      4.5660      5.2354      0.1002
C     17.6494      8.8492     14.8649
H     -3.6305      7.7277      5.4577
H     -8.8404     14.3288     10.5852
H     18.9540     11.9306     17.6993
C     -0.2509      3.4321      8.1228
H     19.4938     10.1348     14.9354
C     12.8301      8.9282     12.6067
C      1.9808      1.9681      8.0093
H     10.7302      6.6081     10.9165
C     -0.4349      6.2292      1.5579
H      6.0951      7.6898     -1.1911
H     19.2370      9.2185     12.7110
C     10.1598      7.0627     12.6104
O     14.9576     10.8092     13.2817
C     -5.6997      8.6562      8.3878
C     16.7645      8.3947     20.3558
C     -9.0653     14.4562      9.5082
C      2.6461      1.0197      5.0565
H     -2.2877     10.1958      2.4667
H    -11.1632     16.6235      9.6156
C      4.3411      3.4740      3.2352
H     -3.5736      8.4733      7.5121
C     -2.2143      8.1207      0.6567
C     11.3208      6.5528     11.8265
H     -1.8227     11.7995      5.4151
C      5.3542      2.1641      5.0749
H     17.2955     12.7175     16.9005
C    -10.4275     12.5296      8.6923
C     -7.9222     11.3600      8.3106
C     -2.1988      5.0795      3.9004
C     16.5662      9.7686     19.5536
C      2.8647      3.7095      2.5569
C     -7.8411      6.9349      9.6116
H    -10.9596     12.2274      9.5744
H     15.3691      7.8872     13.2266
H      8.5961      6.0209      4.9717
H      0.1536      4.1409     -0.3365
O      5.3657      6.9045      6.4282
C      0.6299      8.0659      4.5052
H     17.1277     10.4969     20.2060
C     -2.9957      8.4412      3.5495
C     -2.3061      7.2201      2.8341
H     -5.5186      9.3853      9.3318
H      8.8494      3.7086      2.6874
C     -2.7241      8.8388      7.9167
H      2.4577      3.5050      4.9932
H     13.1146     10.4508     10.7487
H      3.5358      4.0558      1.4659
H     -0.2600      3.2595      9.1399
C      3.2726      1.5212      2.2028
C     -0.1719      8.5513      2.0783
O      4.0283      4.0941      0.5900
O      7.9440      4.0607     10.7569
C     -0.4732      2.5572      1.6272
C      0.3343      3.5760      3.8476
C     -5.4904     10.9876      7.2511
H     -2.9674     10.0767      7.9795
H     15.5668      9.6862     19.1500
H     -0.6125      9.6857      3.9959
H     11.7923      8.4723     11.0372
O      0.1592      9.9393      6.1479
C     -6.5688     11.7001      8.1774
C      0.4953      6.8966      6.8516
C     14.4701      7.5498     13.7147
H     15.7984      8.3505     15.5264
C      0.6104      7.5460      2.9983
H     -3.7415     13.2143      8.7033
C      2.2774      0.0474      4.1381
C      0.8190      2.6763      7.5350
C     -2.4160     10.9922      5.9069
C     -2.4032      3.2401      5.8341
C     17.8192     11.9796     17.3804
C     -9.9623     16.7209     10.0152
C      0.9604      2.4002      1.2284
C     -1.2420      7.6455      1.7842
C     -8.8890     12.2130      8.8070
N      1.8841     -1.1063      4.6753
C      3.7816      1.3159      0.7982
O     16.9511      6.1521     15.2884
C      9.4617      5.8455      0.2136
H     18.3897     10.3641     19.0402
C     -2.7139      4.1432      2.9239
C     -2.8930      8.2655      9.2520
H      8.0039      3.1730      7.9441
H      8.0673      3.1165     10.8316
H     -4.8605      8.9267      6.2989
C     -3.1942      9.2077      0.9734
H     -8.1596      6.5206      8.4901
H      1.8885      7.6069      9.5677
H     -0.2286      9.7343      2.1153
H     14.1994     10.1253     12.3418
H      3.0569      1.6034      0.1139
H     -1.3323      3.2839      7.7204
C     14.9024      7.4448     15.2637
H      4.6984      2.0386      0.1998
C     13.2300     10.1039     11.8988
H      2.0590     -1.8216      4.0687
C      4.1659      8.0389      4.2537
C      7.6978      7.3330      2.9083
C     20.2621      9.6242     14.4364
C     18.7398      8.0017     14.4259
C      4.3096      6.0510      6.2391
C      1.9364      4.8738      2.4493
C      6.0087      5.9182      0.2807
C      5.4429      7.2991      4.0419
C      8.2904      6.4730      0.6626
H     12.9432     11.0342     12.3986
C      4.2180      5.1311      7.3914
C      1.6772      5.0753      0.7702
H     -2.3519      6.2833      6.9249
C      6.0564      7.0366      5.2074
H      2.0338      1.8290      4.8998
H     -2.3426      3.8715      1.9507
H      0.7863      3.4164      0.6733
C      7.0289      5.6192      0.9463
H     -0.7872      3.3534      3.7124
O      7.3403      7.5590      5.4130
H      9.0101      8.7507     11.5203
H     21.0902      9.5472     15.3227
H      1.1982      2.8921      3.1195
H      1.6056      5.1972     -1.3135
H      8.0025      2.2520      9.9617
C     12.4429      7.6421     11.6269
H      6.4660      5.1191      6.9220
C     15.6596      6.0832     15.8352
H      0.2038      7.5555      8.7565
C     -2.0360      4.4888      5.3143
C      0.3633      6.7605      5.2246
H      3.5681      1.9200      4.5791
C      1.3859      5.5804      4.9007
H    -10.2881     11.9016      7.6878
H      2.0162     -0.2409      2.0921
H     14.6179     10.1950     16.0252
C     -5.1637      7.4457      8.5025
C     -8.2823     13.6004      8.5044
C      6.1900      7.4694      2.7600
C     -3.3081      9.8902      5.2739
C     -0.1404      6.1698      2.9551
C     -1.6465      6.3516      3.6560
H      1.7479      3.3434     -0.6233
H      5.0934      4.5868     -0.8717
H     -1.5133      2.7954      6.2708
C    -10.6477     13.9912      9.0594
H     -1.5000     10.4325      6.4107
C      0.7975      5.0830      3.5499
C      5.5319      3.4557      2.5069
H      0.0398      4.4868      7.9362
H     -6.6623      8.9314      6.4488
C      7.4360      4.0227      9.5890
H     -2.4833     12.2885      7.7872
H     -5.4393     11.2133      6.0311
C      1.7865      6.5855      8.9355
C     -1.7726      5.7312      6.1610
C      2.4253      0.3116      2.9220
C      1.3916      4.6048      5.9495
C      1.8339      6.4053      7.5762
C      1.1925      4.4322     -0.4544
H     -0.9733      5.3446      1.0275
H      3.8819      1.9710      2.9420
H     -2.0683      8.1283     10.1095
H      4.1501      0.3350      0.6427
H     -5.1753      7.0350      7.1903
H      8.9140      3.9093      8.9586
H      6.0261      0.9487      3.5846
C     -0.4495      8.9661      4.9420
C     -4.0174      7.3266      9.3360
H      4.1138      6.4683      0.1985
H     -4.1195      8.0916      3.3346
C     -4.3851     11.5492      7.7193
H     -2.5787      3.1396      3.4588
H     -4.0995     10.5377      4.7654
C     -0.3719      7.6554      7.6542
C      0.5368      3.6430      5.3975
O      8.5297      5.3677      4.3468
C     -1.6078      8.0428      5.5188
C     -6.4448     13.7074      7.0458
C      5.4598      1.7531      6.4462
C      3.2645      0.8319      6.3973
H     -5.4033     13.6567      6.9642
H     -8.3338     16.3569      9.1246
H      0.9961      9.3401      6.1149
H     17.2207     12.2103     18.1740
C      1.7723      4.8269      7.1397
C      3.8756      5.5062      5.0603
C     -9.0712     15.8711      9.1550
H     20.5920     10.6449     13.7915
H      0.3795      6.2193     -0.2460
C      8.3478      6.9194     10.6088
H     -9.8735     17.0088     11.0988
H     11.4870      5.6294     12.2324
C      4.3502      3.0687      4.5947
C     17.5308      9.9966     18.4652
C     -6.0423     12.5078      9.0770
C     -5.6563      9.3681      6.9869
C      5.7817      4.7590      7.8622
C     -6.7653     13.6125      8.6129
H     -4.0166      9.1422      0.4926
H     10.2094      5.3126      0.9830
C     14.4668     10.1863     14.1403
H     -9.6556     17.8272      9.9522
H     -2.3287      8.8631      2.8849
261

C     19.8875      8.6609     13.6611
N     -3.0784     10.1699      1.6176
C      4.2098      1.5436      7.2153
C      2.1052      2.5979      2.2103
C      7.7766      5.1068      2.3217
H     -3.1896      7.0555      2.7316
C      7.6979      3.6756      2.6000
C      3.5437      3.8573      5.3615
C     16.3802      7.1310     19.6121
C      6.4207      1.9660      4.0844
C     -7.1522      8.2683      9.0853
C     13.3593      8.8893     13.9840
N      0.4157      2.4735      6.0408
C      0.7174      6.2231      0.6340
O     -1.4561      2.0775      1.4281
C      3.5027      3.9757      6.7538
H     13.8294      7.8072     11.7778
C     15.5564      6.1477     17.5083
C     16.3997     10.3290     16.3276
H    -11.2248     14.1127      9.8692
H     -3.3920      3.0130      5.2036
H     16.8601      5.9927     14.3110
C     16.8537      8.9339     16.0037
H     -8.8592      6.9615      9.9607
H     -0.9850      5.7934      6.7022
H     -6.5620     14.5939      9.1552
C      3.4301      2.7924      7.6835
H      7.2179      1.6758      4.6292
O     14.0657     10.6114     15.4146
C     -4.6006     12.7945      8.5276
C      6.0623      5.9651      9.7776
H      3.6854     -0.5135      6.3620
C      6.5614      3.0917      3.0163
H      5.9462      3.2921      7.9374
H     -9.2076     12.1783     10.2033
H      2.6607      5.9041      9.5347
C     16.7794     10.9472     17.4548
C     -2.9082      8.6162      4.9794
O      2.0452      8.6461      4.8341
C     -1.3402      8.0181      7.0946
C      8.8629      7.8975     11.6768
C     20.8141      7.7106     12.7477
C      6.4041      6.7585     -0.6963
H      5.7058      4.8840      2.2114
H     17.2855      9.4718     13.8911
H      2.2135     -0.8115      5.7711
H     -5.2847      6.1174      8.1656
C      7.5176      2.9334      8.9299
H      1.3406      1.2956      0.8199
C      7.1431      6.3401     10.8901
C      8.0854      5.9108      3.4947
H      8.1438      7.5246      2.3170
C     -1.0172      6.6347      5.1351
H     15.9586      8.7528     21.0243
H     16.2293     10.9695     15.4954
H      2.7891      5.7719      0.3376
C     -3.1306     11.6175      7.1457
C      6.3756      4.8653      9.0094
C     15.9289      7.6233     18.0383
C      4.6535      5.4631     -0.0633
C     17.6659      9.0617     14.9712
H     -3.6301      7.9198      5.3715
H      7.9718      7.9732      4.2938
H     -9.0470     14.3229     10.4093
C     -0.3308      3.3102      8.0917
H     19.3260     10.3831     14.6048
C     12.4881      8.7200     12.7803
C      2.0892      2.0145      7.8214
H     10.8596      6.7188     10.7936
C     -0.6661      6.2378      1.6340
H      5.3539      7.5429     -0.7651
H     18.9317      8.6284     13.0640
C     10.3148      7.3980     12.5193
O     15.2366     10.5499     13.4984
C     -5.7768      8.3696      8.6124
C     16.7569      8.5115     20.4399
C     -9.2581     14.3870      9.3705
C      2.6501      1.1674      5.1639
H     -2.2381     10.5845      2.2080
H     -7.0597     12.2169      7.1226
H    -10.9365     17.0369      9.4232
C      4.2672      3.6644      3.0010
H     -3.2327      8.3062      7.0626
C     -1.8434      8.3720      0.4683
C     11.4378      6.8102     11.7773
C      5.2743      2.2827      4.9729
H     17.2781     13.0294     17.3645
C    -10.4597     12.5211      8.4843
C     -7.9835     10.9481      8.4914
C     -2.2374      4.9897      3.8480
C     16.4691      9.5380     19.4975
C      2.9151      3.7238      2.3411
C     -7.8822      6.9535      9.3663
H    -11.1984     11.9778      8.9210
H     15.1270      7.7598     13.2193
H      9.5683      5.1588      4.5720
H      0.4376      3.6663      0.0745
O      5.5786      6.7369      6.7708
C      0.6503      7.8649      4.4933
H     -8.7414     11.0674      7.6350
C     -2.6407      8.6501      3.5331
C     -2.1090      7.4645      2.9535
H     -5.4210      9.1438      9.0484
H      8.4519      3.1192      3.2079
C     -2.5314      8.6108      7.9832
H      2.4416      3.8380      5.4127
H     12.7262      9.8800     10.4732
H      4.8543      3.6683     -0.3788
H      0.0839      4.0035      8.7285
C      3.1122      1.4099      2.2377
C     -0.0952      8.5249      2.3205
O      4.0970      4.1271      0.1115
O      7.5815      4.2040     11.0965
C     -0.5897      2.9565      1.4657
C      0.5596      3.6962      3.8567
C     -5.4045     10.9051      7.4531
H     -2.7373      9.7055      8.1039
H     15.3927     10.0598     19.6473
H     -0.5557      9.7516      4.2495
H     12.3740      8.2435     10.7131
O      0.2189      9.7181      6.1179
C     -6.6910     11.6245      7.9198
C      0.7233      6.8407      6.6227
C     14.3226      7.4939     13.9337
H     15.6814      8.4861     15.3420
C      0.6755      7.5768      3.0076
H     -4.1111     13.8488      8.6510
C      2.0725      0.0831      4.1560
C      0.7099      2.5520      7.4831
C     -2.3777     10.7468      6.1180
C     -2.6533      3.3768      5.7945
C     17.5673     12.1428     17.6829
C    -10.1116     16.6840     10.2245
C      0.9299      2.1269      1.3973
C     -1.1815      7.6773      1.8197
C     -8.7314     12.1477      8.9957
N      1.8263     -1.0541      4.8717
C      3.4311      1.2936      0.8248
O     16.8726      6.4898     15.2083
C      9.5882      6.4149      0.4082
H     18.5140      9.9892     18.5273
C     -2.3473      3.8646      2.8987
C     -2.8115      7.9958      9.2912
H      7.9432      3.2841     11.4547
H     -4.7547      9.3204      6.3935
C     -2.9255      9.2019      0.9151
H     -7.8933      6.5582      8.3568
H      2.2310      7.5715      8.9875
H     -3.1702      3.5065      6.7022
H     -0.2081      9.5025      2.8923
H     14.1620      9.5271     11.7811
H      3.2468      2.1898      0.8680
H     -0.9704      2.3676      8.7337
C     15.0201      7.4633     15.2256
H      4.4785      1.1779      0.4159
C     13.0709      9.9816     11.6806
H      0.8893     -1.6349      4.7993
C      4.1650      7.9292      4.2290
C      7.6942      7.3788      3.3453
C     20.3438      9.7740     14.4833
C     18.9711      8.0027     14.8394
C      4.2410      5.9719      6.4892
C      1.9962      4.8610      2.3960
C      6.1754      5.5336      0.3677
C      5.4990      7.5917      4.3726
C      8.2449      6.5098      0.5557
H     13.2259     11.0495     12.1926
C      4.5076      4.7827      7.4537
C      1.7574      5.1757      0.8619
H     -2.6166      6.2345      6.5431
C      6.3745      7.0224      5.6227
H      2.3424      2.1730      5.2863
H     -3.0161      3.5826      2.0134
H      0.8551      2.9570      0.7530
C      7.2699      5.6638      1.0853
H     -0.4862      3.4781      3.5905
O      7.5660      7.1366      5.7762
H     21.0063      9.6188     15.2647
H      1.4102      3.0377      3.5475
H      0.9578      4.4684     -1.2507
H      7.8040      2.3041      9.7976
H      4.4429      5.3843      4.2540
C     12.4827      7.7232     11.5872
C     15.6812      6.1968     15.7900
H      1.0568      6.2100      8.9076
C     -1.9008      4.5773      5.1713
C      0.5268      6.6869      5.3118
H     17.6135      8.1783     21.1024
H      3.6564      1.7165      4.6102
C      1.3151      5.6041      4.8541
H    -10.6950     12.6513      7.4323
H      2.1221     -0.7653      2.1894
H     14.6872     10.3930     16.1791
H     -0.0462      6.7776      8.2680
C     -4.8018      7.1880      8.1768
C     -8.3088     13.6822      8.5214
C      6.2073      7.7193      3.1586
C     -3.2668      9.7723      5.5720
C     -0.0090      6.1861      2.8350
C     -1.5004      6.3832      3.8500
H      2.0030      2.9875     -0.2989
H      4.6406      5.4867     -1.2336
H     -1.8677      3.0203      6.7658
C    -10.5063     13.9376      9.1039
H     -1.2645     10.9321      6.3503
C      0.9009      5.0386      3.4745
C      5.4187      3.7567      2.4604
H     -0.8270      3.9814      7.3214
H     -6.4632      9.1307      6.7047
C      7.1974      3.9936      9.7214
H     -2.6271     12.5457      7.5273
H     -5.6731     10.9814      6.2671
C      2.1526      6.4404      8.6389
C     -1.7831      5.9050      6.1258
C      2.4073      0.1933      2.8547
C      1.5065      4.6458      5.9870
C      2.0961      6.4244      7.2684
C      1.4049      4.0309     -0.2612
H     -1.4481      5.6115      1.4240
H      3.9385      1.6277      2.9470
H      3.2537      0.5592      0.0697
H     -3.9774      7.2495      7.2250
H      5.6922      1.2156      3.8429
C     -0.4012      8.9215      5.0399
C     -3.8384      7.1629      9.3959
H      4.1178      6.5744      0.2200
H     -3.6994      8.7039      3.1728
C     -4.3442     11.6956      7.8314
H     -2.2786      2.8350      3.5719
H     -3.7949     10.4288      4.7570
C     -0.1016      7.4873      7.4688
C      0.8079      3.5088      5.4176
O      8.5178      5.0883      4.5530
C     -1.5489      8.1314      5.6888
C     -6.4719     14.1792      7.0914
C      5.3661      1.9729      6.3888
C      3.2108      0.6663      6.3755
H     -5.5721     13.8839      6.6681
H     -8.2565     16.1065      9.5604
H     -5.8598     12.4677      9.8604
H      1.1563      9.4864      5.6454
C      2.3365      4.8480      7.0067
H     -0.5121      4.0438      1.3567
C      3.7795      5.5034      5.0920
C     -9.1874     15.8818      9.1859
H     20.4187     10.5811     13.7968
H      0.0284      5.9815     -0.0178
C      8.2671      7.0502     10.5270
H    -10.5038     15.8178     10.6739
H     11.4469      5.7941     11.6228
C      4.1358      2.8341      4.3571
C     17.2780     10.1151     18.5956
C     -6.0682     12.6349      8.9572
C     -5.5512      9.3526      7.3187
C      5.8426      4.3636      7.7586
C     -6.7751     13.8718      8.5398
H     -0.6983      4.0428      5.2031
H     -4.0835      9.1348      0.4363
H      9.9725      5.6471      1.0840
C     14.2556      9.9865     14.0990
H     -9.4665     17.2880     10.2925
261

C     19.8600      8.6017     13.6766
N     -3.0041     10.1347      1.7686
C      4.1996      1.6651      7.1529
C      2.2269      2.5843      2.2307
C      7.8777      5.0649      2.3791
H     -3.1058      7.2179      2.6402
C      7.7660      3.7761      2.6100
C      3.4634      3.8497      5.1741
C     16.4004      7.1559     19.5904
C      6.3193      2.0069      4.1362
C     -7.1918      8.1599      9.1392
C     13.4294      8.8997     13.9156
N      0.3488      2.4985      6.1117
C      0.7012      6.1944      0.6316
O     -1.3502      2.2404      1.3733
C      3.4011      3.9934      6.7313
H     13.5736      7.8038     11.6400
C     15.5663      6.2645     17.3598
C     16.3661     10.2666     16.3169
H    -11.3152     14.2457      9.8250
H     -3.2657      2.8740      5.3201
H     16.7196      5.9087     14.4475
C     16.8462      8.8288     15.9147
H     -8.7100      7.1491     10.3570
H     -7.6512     10.0364      9.2185
H     -0.8378      5.6801      6.8947
H     -6.4130     14.8114      9.0725
C      3.3756      2.7899      7.7282
H      7.1779      1.7880      5.0511
O     14.0860     10.5946     15.4289
C     -4.6850     12.7623      8.5031
C      6.0724      5.9371      9.8732
H      3.9433     -0.0983      6.4322
H      4.0657      5.1407      8.2772
C      6.6079      3.0854      2.9479
H      5.5829      3.4691      7.8942
H     -9.1133     12.0330     10.0972
H      2.6081      5.6019      9.2958
C     16.8048     10.9548     17.4695
C     -2.8123      8.4792      5.0752
O      1.9413      8.6213      4.8166
C     -1.3381      7.9680      7.1118
C      8.8472      7.7791     11.7063
C     20.7324      7.6436     12.7579
C      6.4678      6.7795     -0.6902
H      5.6376      4.6424      2.0276
H     17.4036      9.5746     13.7615
H      1.8028     -0.7511      5.9776
H     -5.4263      6.1479      8.1782
C      7.6090      2.8416      8.9369
H      1.4284      1.0677      1.0789
C      7.1516      6.3409     10.8105
C      7.9938      5.8886      3.5824
H      8.2152      7.5090      2.2222
C     -1.0704      6.6639      5.0474
H     15.8636      8.6926     20.9719
H     16.3747     10.7973     15.4468
H      2.9034      5.4708      0.5773
C     -3.1072     11.6369      7.1552
C      6.3630      4.9748      8.9391
C     15.8743      7.5926     17.9292
C      4.7194      5.4604     -0.0982
C     17.8208      9.0481     14.8754
H     -3.7604      7.5400      5.3068
H      7.9760      7.9457      4.1910
H     -9.3365     14.1630     10.6707
C     -0.2411      3.2268      8.1164
H     19.1337     10.0874     14.6733
C     12.4587      8.5689     12.7077
C      2.0614      2.1158      7.7771
H     10.9389      6.7638     10.6914
C     -0.5636      6.2988      1.5537
H      5.6670      7.5449     -0.5865
H     19.2648      8.7569     12.9936
C     10.3201      7.4493     12.4386
O     15.2383     10.5104     13.4143
C     -5.7105      8.3904      8.6110
C     16.7022      8.4475     20.4052
C     -9.2035     14.3967      9.4951
C      2.5393      1.1528      5.2991
H     -2.2041     10.5845      2.2686
H     -6.9069     12.1538      7.0503
H    -10.8636     17.0422      9.4459
C      4.1790      3.5719      3.1225
H     -3.2892      8.2077      7.7240
C     -1.8927      8.4264      0.4387
C     11.4087      6.7928     11.5421
H     -2.6193     11.6345      5.3422
C      5.3047      2.3455      4.9745
H     17.3732     13.2458     17.5787
C    -10.4256     12.5963      8.4427
C     -8.0779     10.9606      8.5117
C     -2.1762      5.0178      3.8511
C     16.5891      9.6777     19.4718
C      2.9375      3.7969      2.3741
C     -7.9668      6.9221      9.4477
H    -11.0170     11.7269      8.5587
H     14.8956      7.4350     13.1747
H      9.5147      5.0316      4.6992
H      0.3708      4.0917     -0.0018
O      5.6210      6.7343      6.7503
C      0.7160      7.8021      4.5000
H     -8.8003     10.3811      7.7346
C     -2.6459      8.8212      3.5344
C     -2.1751      7.4630      2.9128
H     -5.2593      9.0272      9.3827
H      8.4255      3.2650      3.0604
C     -2.4190      8.5756      7.9695
H      2.5634      3.4599      4.5884
H     12.6585     10.1887     10.6926
H      4.5051      3.5850     -0.4571
H      0.0193      4.2203      8.5852
C      3.1743      1.4818      2.2995
C     -0.0669      8.4580      2.3048
O      4.0742      4.1362      0.2543
O      7.6227      4.2620     11.0116
C     -0.3729      2.9839      1.5422
C      0.4170      3.5066      3.7359
C     -5.5495     10.8807      7.5817
H     -2.6242      9.6130      8.2170
H     15.6197     10.4038     19.5170
H     -0.5112      9.7816      4.4166
H     12.0286      8.1519     10.8205
O      0.0856      9.5710      6.1864
C     -6.7532     11.5648      7.9440
C      0.8092      6.8186      6.6279
C     14.3368      7.4870     13.9064
H     15.5238      8.3596     15.5056
C      0.7274      7.5308      3.1328
H     -3.8472     13.5351      8.7260
C      2.0881      0.2038      4.2561
C      0.7953      2.5155      7.5016
C     -2.4226     10.7470      5.9103
C     -2.7466      3.4561      5.8369
C     17.5888     12.1384     17.6612
C    -10.0997     16.6276     10.0275
C      1.0665      2.1777      1.5024
C     -1.2259      7.6840      1.7127
C     -8.7407     12.1737      9.1231
N      1.7616     -1.0570      4.8756
C      3.4869      1.1962      0.8283
O     16.8651      6.5279     15.2650
C      9.5583      6.4314      0.3979
H     18.5093     10.1147     18.7993
C     -2.4022      3.9093      2.8756
C     -2.6938      8.0444      9.3696
H      7.7589      3.3545     11.5162
H     -5.0571      9.0856      6.2627
C     -3.0622      9.2439      0.7954
H     -8.5249      6.6652      8.4917
H      2.1295      7.4876      9.0111
H     -3.3859      3.8385      6.5457
H     -0.3581      9.4181      2.8983
H     13.6512      9.3546     11.9586
H      3.6748      2.2712      0.7140
H     -0.8050      2.5838      8.6808
C     14.8586      7.5241     15.2879
H      4.5492      1.0584      0.7025
C     13.0604      9.9583     11.6692
H      0.7330     -1.2339      4.6969
C      4.1910      8.0352      4.1736
C      7.6557      7.4233      3.3326
C     20.1459      9.8432     14.4160
C     18.8272      8.1211     14.7442
C      4.3704      5.9966      6.3972
C      1.9721      4.8578      2.3187
C      6.1011      5.6819      0.3885
C      5.4809      7.4710      4.4255
C      8.3169      6.5145      0.5021
H     13.4619     10.8799     12.1124
C      4.5299      4.8273      7.3337
C      1.8289      5.1112      0.8189
H     -2.5990      6.2412      6.6668
C      6.4541      6.8626      5.5227
H      2.4423      2.2291      5.2815
H     -3.2306      3.3722      2.1927
H      0.9976      2.9407      0.7797
C      7.2693      5.5928      1.1427
H     -0.5500      3.7940      3.7129
O      7.6677      7.0554      5.7676
H     20.6573      9.5640     15.4071
H      1.2047      2.8693      3.3656
H      1.3786      4.5799     -1.1956
H      7.9411      2.1034      9.9713
H      4.6306      4.9458      4.0552
C     12.4814      7.7798     11.6550
C     15.4994      6.2515     15.7744
H      1.0007      6.2040      9.1298
C     -1.9531      4.5718      5.3615
C      0.5481      6.6116      5.2387
H     17.5933      8.3719     21.0058
C      1.3210      5.5106      4.7256
H    -10.6485     12.5783      7.2608
H      1.8924     -0.5425      2.5316
H     14.9514     10.6194     16.0957
H     -0.3589      6.9547      8.4171
C     -4.7266      7.1884      8.2099
C     -8.2850     13.6664      8.4724
C      6.2421      7.5896      3.0904
C     -3.4073      9.7502      5.6883
C      0.0104      6.1509      2.8408
C     -1.4678      6.3867      3.6604
H      1.9972      3.2753     -0.6010
H      4.7527      5.3558     -1.2089
H     -2.0005      2.7228      6.1823
C    -10.5471     13.8612      9.0552
H     -1.2135     10.7741      6.1301
C      0.9877      4.9466      3.3756
C      5.5419      3.7410      2.4905
H     -1.0016      3.6151      7.3145
H     -6.6421      9.4205      6.8195
C      7.1387      3.9152      9.7299
H     -2.5966     12.7153      7.3965
C      2.0592      6.4540      8.8021
C     -1.7604      5.8228      6.0698
C      2.3798      0.2464      3.0566
C      1.3552      4.5935      5.8979
C      2.1548      6.2567      7.3021
C      1.3672      4.0771     -0.1988
H      4.2807      1.2592      3.0488
H      3.0916      0.5453      0.0817
H     -4.0373      7.1484      7.0882
H      5.7744      1.3031      3.6112
C     -0.4759      8.8252      4.9648
C     -3.9232      7.2650      9.4096
H      4.2050      6.4246      0.1632
H     -3.6696      8.8769      3.1895
C     -4.3594     11.6982      7.7370
H     -2.2732      2.9167      3.5024
H     -4.2922     10.3383      5.2775
C     -0.0714      7.5928      7.4112
C      0.8292      3.4491      5.3216
O      8.4684      5.1223      4.5936
C     -1.6519      8.2855      5.7124
C     -6.3506     14.1836      7.1004
C      5.3292      1.9776      6.3715
C      3.2595      0.7821      6.4520
H     -5.6575     13.8275      6.3073
H     -8.0785     15.9850      9.4044
H     -6.0395     12.3773     10.1597
H      1.0503      9.7160      5.7776
C      2.1648      4.8039      6.9929
H     -0.7440      4.0993      1.6405
C      3.8837      5.4657      4.9616
C     -9.1414     15.7729      9.2298
H     20.6974     10.6858     13.8378
H      0.4298      6.0558     -0.3258
C      8.2605      7.0493     10.5931
H    -10.6737     16.1708     10.7911
H     11.0941      5.6788     12.0642
C      4.0640      2.7075      4.2613
C     17.3643     10.1525     18.4629
C     -6.0601     12.6648      8.8544
C     -5.6751      9.3299      7.2713
C      5.9192      4.4166      7.7695
C     -6.8457     13.8260      8.5320
H     -0.8850      4.0994      5.3286
H     -3.8342      8.9727      0.2318
H     10.0243      5.8702      1.1261
C     14.2744     10.0303     14.0939
H     -9.4145     17.2383     10.6057
