263

C     19.7173      8.9379     13.9107
N     -1.9457     11.0092      1.1878
C      3.9134      1.5870      7.0276
C      1.8085      2.6168      1.5711
C      7.6841      5.1320      2.3874
H     -3.0626      7.1983      2.1644
C      7.2838      3.8026      2.6935
C      3.3136      3.8952      5.4658
C     15.9208      7.2072     19.4048
C      6.0165      1.9792      3.8139
C     -7.0455      8.2007      9.6534
C     13.9640      8.7970     13.6966
N     -0.0438      2.5081      6.0575
C      0.3639      5.9715      0.6412
O     -1.6780      2.7745      0.9496
C      3.0683      4.0323      7.0258
C     15.6636      6.2134     17.5006
C     16.2079     10.4155     16.6220
H     -3.6735      3.6563      4.7782
H     16.9923      6.9666     14.5667
C     16.7881      8.9452     16.1856
H     -9.0544      7.6657     10.3701
H     13.0686      7.6816     10.9418
H     -1.0855      5.3827      6.5109
H      8.4335      2.7338     10.0849
C      3.1277      2.6851      7.4162
H      6.7998      1.3402      3.7888
O     14.2394     10.7864     14.9911
C     -5.0122     12.7605      8.7565
C      7.2007      5.9557      9.6131
H      3.3583     -0.2843      6.4237
H      3.0927      6.5760      9.0770
C      6.0628      3.1796      3.0138
H      6.0827      3.6930      7.3182
H     -8.5154     10.7344      9.2278
H     -8.4484      6.6126      8.9400
C     17.0638     10.9431     17.8300
C     -3.0512      8.4850      4.9933
O      1.8854      8.3683      4.6809
C     -1.5875      8.0352      6.7905
C      8.5231      8.6351     11.8685
C     20.4183      7.8618     12.9857
C      6.5980      6.8771     -0.7297
H      4.9514      4.6464      1.9755
H     17.9778      9.9423     14.6662
H      2.0309     -1.3263      3.9047
H     -5.7030      7.3730      7.9729
C      7.7637      3.2957      9.5847
C      7.3877      6.7251     10.8559
C      8.0649      6.0319      3.2542
C     -1.1774      6.7107      4.8269
H     16.5152      8.1676     21.3963
H      2.5077     -0.6705      1.9904
H     15.3566      7.5667     13.0523
C     -3.2570     11.8491      7.1724
C      6.2203      4.8971      9.3468
O      5.6079      2.9452     10.6581
C     15.7768      7.5785     17.8616
C      4.6195      5.4485      0.1122
C     17.4928      9.0061     14.9267
H     -3.5958      7.5583      5.0893
H      7.6677      7.7651      4.2253
H     -9.2359     13.9749     10.2413
H     -6.4247     12.4923      9.8570
H     17.1901     12.7607     16.9354
C      0.1946      3.2296      8.7360
H     21.0404     10.2965     13.3840
C     13.4552      8.9107     12.2764
C      1.6602      1.5714      7.6507
H     -1.9679      8.1720      9.2539
C     -0.6929      6.1925      1.4148
H      6.1613      7.5200     -1.6671
C     10.0674      7.9502     12.3081
O     15.3785     10.3976     12.9102
C     -6.2345      8.4913      8.5767
C     16.9058      8.0939     20.3135
C     -9.7097     14.4126      9.4286
C      2.8639      1.6101      4.8940
H     -1.4278     10.7478      2.1703
H     -2.9866     10.4835     -0.1783
H     -6.9098     11.7254      6.8096
H     -9.8551     16.7515     10.7776
C      3.6339      3.1434      3.3033
H     -4.7354      9.1936      5.9555
C     -2.3408      8.5383      0.7406
C     11.2638      7.6528     11.3916
H     -1.7429     10.6944      6.1320
C      5.1760      2.1673      5.1477
H      4.1107      0.7073      5.3539
H     -1.7760      3.5912      0.6675
C    -10.4688     12.2271      8.8539
C     -8.3877     11.1089      8.2527
C     -2.0427      5.0854      3.4371
C     16.5077      9.4194     19.6855
C      2.0230      3.4325      2.8431
C     -8.1801      7.1218      9.9549
H      8.5094      4.4657      4.0005
H      2.0571      4.9088     -1.1586
O      5.4078      6.3036      6.7193
C      0.6661      8.1030      4.3968
H     -8.3698     10.2061      7.5119
C     -3.1646      8.7552      3.5151
C     -2.2836      7.6605      2.8682
H     -6.7597      7.9953      7.6292
C     -2.7365      7.6761      7.5068
H      2.1947      3.9359      5.1574
H     13.2752      9.3724     10.2243
H      4.1322      3.6985     -1.0346
H     -0.5238      3.9987      8.2808
C      2.7925      1.5595      1.4735
C     -0.0655      8.6329      1.7135
O      4.6609      4.0084     -0.1361
O      7.1987      4.2736     11.6999
C     -0.4578      2.9146      1.7278
C     -0.4424      3.9975      4.3268
C     -5.5289     10.6475      7.5076
H     -3.3079      7.0713      6.9126
H     15.4079      9.7782     19.6379
H      0.1375      6.4819     -0.5588
O      0.1236      9.8037      5.8312
C     -6.9664     11.4118      7.8968
C      0.6092      7.0157      6.6185
C     15.1070      7.9225     13.9440
H     15.8126      8.3620     15.8119
C      0.5368      7.6371      2.8548
H     -4.1855     13.4656      9.2884
C      2.4683      0.7001      3.8484
C      0.4290      2.3806      7.6243
C     -2.8470     10.7045      6.5246
C     -2.8342      3.4701      5.3503
C     17.9722     12.0494     17.4953
C     -9.9309     16.8981      9.6701
C      0.5765      2.2668      1.2632
C     -1.2478      7.7714      1.5125
C     -9.0986     12.3241      8.2821
N      1.8884     -0.5002      4.4495
C      3.5235      1.4453      0.1439
O     16.8562      6.2892     15.5102
C      9.7235      6.5202      0.0335
H     18.5499      9.6689     18.3307
H     -0.4878      1.4491      7.7672
C     -2.8774      4.8154      2.2362
C     -2.8645      7.6723      8.8812
H      1.6114      0.7025      6.9014
H      7.8101      5.0877     11.4296
H     -4.1156      9.9287      9.0777
C     -2.3933      9.9712      0.5466
H     -7.7422      6.2973     10.5595
H      1.7040      7.6973      9.1107
H     -0.8713      9.7137      3.7085
H     14.4740     10.2654     11.2805
H      4.0218      1.0041     -0.6151
H      0.8147      3.7898      9.4219
C     14.9990      7.4527     15.2800
H      2.8062      1.9111     -0.6485
C     13.6420      9.6462     11.2306
H      6.1411      2.3060     11.2553
H     15.0846     10.3576     16.7652
C      4.1869      8.0568      4.4209
C      7.4801      7.3966      3.2841
C     21.0813      9.6693     14.3645
C     18.7221      8.2984     14.8431
C      4.0705      5.9119      6.4774
C      1.7458      4.9328      2.5981
C      6.0400      5.8452      0.3677
C      5.3123      7.1781      4.3848
C      8.2987      6.6688      0.9223
C      4.0731      4.9116      7.6052
C      1.3452      4.9858      1.0794
H     -3.0435      5.7947      5.6571
C      6.0140      6.4032      5.4108
H     10.3039      6.5755      0.9843
H      0.4822      1.7977      0.2244
C      7.2820      5.6665      1.0914
H     -0.2747      3.3364      3.5880
O      7.1626      7.0694      5.8613
H      8.3787      9.7751     11.5022
H     21.1912     10.0030     15.4229
H      1.6026      3.1156      3.9149
H     -0.5292      9.5026      2.3300
H      2.8552      4.5684      0.4088
H      4.7123      5.1496      4.6041
C     12.5340      7.8426     11.7790
C     15.6017      6.1995     15.8989
H      1.6639      5.9210      9.0190
C     -1.9683      4.5267      4.7326
C      0.2215      6.8967      5.1770
H     17.8570      8.1212     19.8917
H      1.8760      2.1628      5.3441
C      1.2002      5.7343      4.7980
H    -10.8819     11.2764      8.8984
H     16.3835     11.3251     16.0953
H     -0.2434      7.2563      8.6205
C     -4.8367      6.5221      8.6050
C     -8.6422     13.6952      8.1976
C      5.9040      7.2820      3.0533
C     -3.9894      9.7413      5.5225
C     -0.2710      6.3379      2.8347
C     -1.5368      6.4801      3.4568
H      4.8945      5.5922     -0.9917
H     -2.3950      3.3063      6.3241
C    -10.9314     13.7906      8.7649
C      0.6980      5.2728      3.4435
C      4.6840      3.8532      2.6689
H      1.2305      5.0647      8.0052
H     -4.1685      9.1536      7.6107
C      6.7001      3.8627     10.3227
H     -2.8617     12.6835      7.8720
H     -5.5947     10.1682      6.6531
C      2.0212      6.7551      8.7204
C     -1.8886      5.6331      5.6554
C      2.3651      0.4181      2.3849
C      1.0595      4.7187      5.8142
C      1.8995      6.6079      7.1430
C      1.9940      4.5179     -0.0535
H      3.7661      1.5755      2.1610
H      4.1945      2.3947      0.5409
H     -4.5556      5.7201      7.8042
H      8.0603      2.7179      8.7060
H      5.3921      1.1489      2.9356
C     -0.5898      9.1550      4.7114
C     -4.1081      7.3459      9.3901
H      3.8726      6.0007      0.8367
H     -4.3849      8.7169      3.3330
C     -4.5672     11.8052      7.6388
H     -3.4075      3.8129      2.0951
H     -4.0759     10.5155      4.7458
H     -7.0974     14.4378      9.3463
C     -0.3212      7.5777      7.4168
C      0.2293      3.6927      5.5499
O      8.6366      5.4488      4.3838
C     -1.6040      8.0638      5.3436
C     -6.7020     14.2951      7.1042
C      5.1794      1.9183      6.4172
C      3.4176      0.7832      6.1034
H      7.9959      6.6288      5.8260
H     -5.8106     15.1245      7.0865
H      4.9736      3.3428      8.4943
H      0.1654      9.1948      6.6246
H     19.0152     12.5440     17.8348
C      1.8258      4.9045      7.1552
H     -0.0717      3.9140      2.1240
C      3.8725      5.3192      5.1729
C     -9.5171     15.7859      9.0058
H     22.0508      9.0132     14.4952
C      8.3549      7.7391     10.7188
H      3.6941      5.5291      8.4984
H     11.2311      6.6581     11.0003
H     -5.8954     13.2829      7.0249
C      3.7555      2.6250      4.6905
C     17.5085      9.8780     18.7557
C     -6.3782     12.5713      8.8422
C     -4.9620      9.3585      8.3008
C      5.5421      4.3557      8.0959
C     -7.2064     13.7748      8.4782
H     -0.6991      3.0761      9.2528
H      1.5364      3.4538     -0.1911
H     19.0840      9.9002     13.5339
H      9.7105      5.4392     -0.2815
H     -0.8811      2.3255      5.6110
C     14.5895     10.2153     13.9068
H    -10.8933     17.6911      9.5993
H     -2.6959      9.8502      3.4226
