266

C     19.8920      8.7740      0.6504
N     10.4991     10.5722      1.5690
C      3.8486      1.7550      6.9724
C     15.3900      2.2426      2.2273
C      7.6996      4.7539      2.1950
H      9.6630      7.0893      2.3343
C      7.6955      3.4193      2.9728
C      3.3941      3.7607      5.2640
C     16.0347      7.0715      6.3023
C      6.3355      1.4541      3.9326
C      5.2127      8.2070      9.3288
C     13.6604      8.9215      1.0248
N     13.7913      2.3417      5.7549
C     13.8226      6.5582      0.5704
O     11.7279      3.0375      1.8278
C      3.0220      3.9853      6.9864
H     13.9639      7.7390     -1.4899
C     15.6860      6.2661      4.2099
C     16.3711     10.3731      3.7873
H      1.6482     14.2052     10.3865
H     10.6100      2.0010      5.0624
H     17.2862      6.5430      1.3632
C     17.0183      9.1164      3.4561
H      5.0052      6.6834     10.7814
H      4.3697      8.6489      9.4629
H     11.6115      5.4966      6.9334
C      2.8069      2.6793      7.6178
H      7.1449      1.2527      4.5962
O     14.1534     10.6565      2.4790
C      7.9405     12.9571      8.3395
C      6.0583      6.0296      9.7501
H     16.3476     -0.6097      6.0458
H      3.6440      4.9841      8.1168
C      6.5623      2.7607      3.0021
H      6.1136      3.5651      7.5076
H      4.1100     10.9918      9.3940
H     15.8551      6.6068      8.8982
C     17.0039     10.9491      4.8068
C     10.0562      8.4842      5.0222
O     15.0246      8.6136      4.6041
C     11.5910      8.4089      6.9772
C      8.7099      7.9862     12.0540
C     20.5526      7.6060      0.0166
C      6.3520      6.8913     12.1424
H     18.6034      4.2981      1.6608
H     16.8910      9.5548      1.4146
H     13.9327     -0.6132      5.7303
H      7.9891      6.5929      8.0450
C      8.1948      2.8520      9.0005
H     13.6036      1.2310      2.3438
C      7.0777      6.7291     10.7594
C      7.8459      5.7002      3.1056
H      8.1200      7.4047      1.9778
C     11.7385      6.8107      4.9553
H     16.1816      8.0378      8.1759
H     16.4025     10.8929      2.7951
H     15.6518      5.7685      0.7757
C      9.7064     11.5602      7.4327
C      6.2956      4.8311      9.0694
C     16.0524      7.5539      4.8992
C      4.7993      5.2439     12.6599
C     17.4364      8.9517      2.0700
H      9.4227      7.6975      5.3840
H      8.1783      7.7718      3.8163
H      3.7473     15.1135     10.7850
H     18.6355     12.1677      3.7087
C     -0.1990     16.5183      8.0847
H     19.9425     10.7345      1.5988
C     12.6485      8.8604     -0.3619
C      1.5620     14.8313      7.9937
H     10.4964      6.1505     -1.7124
C     12.5013      6.6147      1.3107
H      5.8885      7.8889     12.1076
H     19.3429      9.0133     -0.3968
C     10.3818      7.7260     -0.4195
O     15.2008     10.6529      0.5591
C      6.3718      8.4574      8.6352
C     16.6934      8.0334      7.1770
C      3.4718     14.6382      9.5452
C     15.5952      1.3021      4.9090
H     11.3400     10.1867      2.2030
H      2.4899     18.0209      9.6348
C     17.0483      3.4919      2.8190
H      9.5797      8.4102      7.9876
C     11.2536      8.7411      0.2161
C     11.4297      6.8555     -1.2286
H     11.2333     10.8354      5.9381
C      5.2397      2.2372      4.8860
H     17.4426     13.2421      4.6226
C      2.4579     12.5930      9.0340
C      4.6795     11.6147      8.4311
C     10.6252      5.1447      3.6887
C     16.6936      9.3631      6.6493
C     15.6232      3.6052      2.2965
C      4.8755      6.7218      9.7283
H      2.4591     12.1639     10.2830
H     15.2371      8.5449      0.0405
H      8.4546      6.2838      4.6935
H     13.7657      3.7346     -0.3758
O      5.6043      6.4824      6.4716
C     13.6660      7.9014      4.4724
H      4.1575     11.2802      7.6433
C     10.1038      9.0129      3.3969
C     10.5546      7.7119      2.6806
H      6.3656      7.3028      8.4394
H      8.6995      3.2259      3.3407
C     10.5755      8.1801      7.9801
H      2.4122      3.6505      4.7115
H     12.0063     10.3688     -1.1162
H      4.9117      3.5721     12.2421
H      0.5249     16.6987      8.7863
C     16.2896      1.1201      2.1504
C     12.7104      8.5616      2.2920
O      4.4551      3.9084     13.0526
O      7.3747      3.9128     11.0826
C     12.8742      3.2764      1.3978
C     13.2173      3.7369      3.7796
C      7.0781     10.8798      7.4298
H     10.0226     10.7548      8.2424
H     15.4387      9.6165      6.2447
H     12.5856      9.4208      3.9964
H     12.7622      8.0974     -2.6707
O     13.2914      9.9026      5.7136
C      6.0164     11.5905      8.0263
C     13.5849      7.0276      6.6998
C     14.6845      7.8970      0.8340
H     15.4140      8.5983      2.6932
C     13.5979      7.5640      2.8648
H      8.5877     13.8979      8.1726
C     14.9591      0.1564      4.2476
C      0.2369     15.3624      7.2185
C     10.0946     10.6313      6.2063
C     10.6985      3.2567      5.4796
C     17.8457     12.1417      4.5265
C      3.2442     17.1272     10.2011
C     14.0359      2.2040      1.5643
C     11.5441      7.9088      1.5777
C      3.7420     12.6878      8.5620
N     14.7832     -0.8144      5.1518
C     16.7366      1.1422      0.6323
O     17.0036      5.9689      2.0893
C      9.7171      6.5694      0.5819
H     18.5554     10.2343      5.6616
H     -0.8855     14.8373      7.2183
C     10.1679      4.5646      2.5372
C     10.7300      7.8038      9.4655
H      7.9644      3.1167      7.9593
H      1.6574     13.8908      7.4669
H      8.0882      3.2784     11.4902
H      8.2577      9.2310      8.0004
C     10.3840      9.9559      0.3965
H      4.2919      6.3124      8.9078
H     14.5412      7.4009      8.7956
H      9.8055      3.3856      4.9364
H     13.6898     10.6545     -0.8214
H     17.4961      2.0963      0.5653
H     -1.0929     16.3426      8.8013
C     15.1012      7.5332      2.3862
H     17.1466      0.2182      0.2540
C     13.0420      9.9212     -1.3528
H     14.8465     -1.8688      4.6304
C      4.4460      7.9448      4.2955
C      7.8878      7.1483      2.9633
C     20.6482      9.9282      1.3842
C     18.7626      8.3035      1.7018
C      4.0991      5.7848      6.1583
C     14.8332      4.8942      2.2249
C      6.2397      5.5348     12.9811
C      5.6670      7.3808      4.1187
C      8.2930      6.3564      0.7206
C      4.2971      4.8460      7.3508
C     14.5958      5.2935      0.7549
H     10.0131      5.9592      6.2335
C      6.1753      6.7837      5.3682
H     13.1984      1.4532      5.5064
H      9.3683      5.0610      1.9907
H     13.9816      1.6756      0.4791
C      7.2861      5.3366      0.8714
H     12.2127      3.7103      3.5483
O      7.3580      7.1248      5.4925
H      8.3170      9.0143     11.3207
H     13.5308      2.9236      3.0771
H     10.0448     11.4552      1.8451
H     15.5502      4.7483     -0.8636
H      8.6352      2.3008      9.8142
H      4.5339      5.0256      4.0633
C     12.8957      7.7938     -1.5336
C     15.7494      6.1915      2.6535
H     14.1398      5.8534      8.9162
C     11.1829      4.4716      4.9561
C     13.2972      6.7522      5.3429
H     17.6618      7.7196      7.4527
H     16.2026      2.1900      4.4611
C     14.2621      5.7447      4.6053
H      1.7208     11.9997      8.3673
H     15.3542     -0.7089      1.8816
H     14.2050     10.7489      3.4317
H     13.5601      8.0709      8.3061
C      9.0821      6.5518      8.4239
C      4.3025     13.9527      8.6892
C      6.4551      7.6708      2.9538
C      9.2512      9.4813      5.8857
C     12.8847      6.2904      2.7893
C     11.5145      6.4319      3.4878
H     15.3923      3.2286      0.2573
H      4.5378      5.5700     11.6636
H     10.3367      3.1570      6.5229
C      2.1210     14.1549      9.3771
H     12.1935      9.4524      7.3459
C     13.8149      5.0782      3.3711
C     18.4090      3.5212      2.4100
H      6.6021      8.6933      7.0608
C      7.4200      3.8340      9.6360
H     10.2846     12.4181      8.1095
H      7.0770     10.8053      6.4205
C     14.9254      6.4001      8.5172
C     11.0566      5.5296      5.8791
C     15.4680     -0.0530      2.9203
C     13.7692      4.7329      5.6771
C     14.7948      6.5032      6.9463
C     14.8387      4.1559     -0.2160
H     12.0950      5.5653      1.0031
H     17.2037      1.2375      2.7092
H     11.6087      7.7506     10.0428
H     16.2704      1.9112     -0.3426
H      9.9350      6.9580      7.8742
H      6.2896      0.4260      3.6213
C     12.6675      8.9666      4.9579
C      9.3873      7.0621      9.6024
H      4.2305      6.1346     13.0720
H      9.2788      9.6727      3.1541
C      8.3987     11.7202      7.9365
H      9.7824      3.5666      2.7825
H      8.5962      9.2388      6.5908
C     12.9541      7.8537      7.4594
C     13.5032      3.4485      5.2001
O      8.6898      5.3882      4.3272
C     11.3443      8.3301      5.5349
C      6.0882     14.7303      7.1142
C      5.1586      2.1109      6.3311
C     16.1210      0.7687      6.0740
H      7.1456     14.5620      7.1122
H      4.6803     16.0306      8.5875
H      6.7503     12.8240     10.1273
H     12.9348     10.8412      5.4718
H     18.5997     12.0480      5.2440
C     14.6515      4.9104      6.8821
H     12.8247      4.3445      0.8212
C      3.7668      5.2486      4.7126
C      3.5313     16.0250      8.9754
H     21.6451      9.6336      1.5062
H     13.4977      6.7540     -0.5795
C      8.5200      7.1044     10.7739
H      2.7023     16.5575     11.1089
H     11.8925      6.1953     -0.3091
C     17.1158      3.0136      4.3761
C     17.4700     10.0462      5.8718
C      6.5457     13.1105      8.8656
C      7.0894      9.4528      7.9231
C      5.4207      4.2819      8.0602
C      5.6684     14.3344      8.4928
H      9.3859      9.7863      0.1703
H     10.5300      5.6814      0.6251
C     14.5137     10.0781      1.3279
H      4.1308     17.8029     10.6505
H     10.6891      9.9623      3.4513
266

C     19.8090     21.6990     13.4474
N     10.3311     10.6243      1.7013
C      3.8057     14.7430      6.9683
C     15.2709      2.3791      2.2075
C      7.6875     17.6385      2.3826
H     10.1983      7.2489      1.9906
C      7.7150     16.4667      3.2091
C      3.3302     16.7363      5.1512
C     16.0860     20.1279     19.3047
C      6.3273     14.5546      4.0520
C      5.2103      8.2935      9.3393
C     13.7012     21.9660     13.8069
N     13.5979      2.4397      5.9224
C     13.7748      6.5714      0.4327
O     11.7542      2.8982      1.8294
C      2.9682     16.9257      6.7512
H     13.7350     20.2290     11.3480
C     15.6573     19.0749     17.1389
C     16.2554     23.2856     16.8741
H      1.4261     14.2253     10.1912
H     11.0308      2.2858      4.8209
H     16.9871     20.0586     14.6746
C     17.1667     22.1628     16.3417
H      4.4558      6.7751     10.7085
H      4.6403      9.0992      9.4595
H     11.0411      5.3858      7.0072
C      2.8143     15.6323      7.6440
H      7.0509     13.5344      4.4522
O     14.2003     23.5354     15.5467
C      7.9869     13.0415      8.3132
C      6.4153     19.0863      9.7448
H     16.1768     -0.1504      6.3380
H      3.7585     18.0933      8.3589
C      6.5766     15.8355      3.2442
H      4.5889     10.6639      9.3375
H     15.8425      6.6602      9.0654
C     17.1446     23.8653     17.7498
C     10.0172      8.4406      4.8728
O     15.0286      8.4210      4.7997
C     11.5807      8.3271      7.0344
C      8.8799     20.8179     11.9774
C     20.6650     20.5050     12.7519
C      6.3873     19.7887     -0.8819
H     18.6378      3.1907      1.3906
H     16.9629     22.3234     14.0985
H     14.7256     -0.9415      6.0335
H      7.9433      6.4975      8.4686
C      8.3642     15.7149      9.1356
H     13.2634      1.4830      2.3595
C      7.2117     19.5513     10.8539
C      8.0886     18.6907      3.0636
H      8.2089     20.1184      1.8842
C     11.7372      6.7930      5.1227
H     16.3205     20.8343     21.2322
H     16.5555     24.0122     16.3559
H     15.8942      5.4370      0.6535
C      9.8083     11.3142      7.5189
C      6.4559     17.8748      8.9489
C     15.9355     20.4460     17.7454
C      4.9837     18.0530     -0.4013
C     17.6906     21.9135     15.1509
H      9.4404      7.4818      4.9405
H      8.2083     20.6501      3.8800
H      3.4084     14.5483     10.6246
H     18.4127     24.8670     16.5421
C     -0.1097     16.4440      8.1720
H     20.4150     23.6980     13.9935
C     12.7745     21.8233     12.4401
C      1.5624     14.8257      7.8931
H     11.0451     19.3218     10.6129
C     12.3512      6.5551      1.3147
H      5.5826     20.6844     -0.5321
H     19.2888     22.4293     12.6154
C     10.3116     20.7271     12.6620
O     15.3350     23.4232     13.5073
C      6.4998      8.6529      8.7880
C     16.7951     21.0300     20.2287
C      3.3654     14.6551      9.5036
C     15.5007      1.1101      4.8823
H     11.0864     10.7887      2.3851
H      2.1539     17.4277     10.3266
C     17.1060      3.5381      2.9578
H      9.5070      8.0557      7.4617
C     11.0781      8.7238      0.6257
C     11.4189     19.7378     11.6457
H     11.0326     10.5247      5.6168
C      5.1766     15.1554      4.7528
H     17.1883     26.0136     17.4931
C      2.5759     12.7333      9.1894
C      4.5371     11.4343      8.5517
C     10.8080      5.0468      3.7737
C     16.7127     22.3311     19.4704
C     15.9542      3.6995      2.1675
C      5.0145      6.6998      9.8626
H      3.1383     12.4869     10.1878
H     15.4398     20.8076     13.3702
H      8.6528     19.3016      4.7124
H     13.7608      3.8986     -0.9646
O      5.4108     19.4018      6.4889
C     13.7232      8.0818      4.4923
H      4.5320     10.7361      7.3919
C     10.1252      8.9118      3.4663
C     10.7232      7.7340      2.7500
H      7.0427      7.4582      8.8417
H      8.5579     16.2279      3.9228
C     10.4444      8.4625      7.9738
H      2.2632     16.9557      4.3429
H     12.0707     23.4287     11.4678
H      4.7507     16.1109     -0.6947
H      0.4091     16.8755      8.9440
C     16.2271      1.2075      2.1803
C     12.8164      8.8642      2.0907
O      4.7279     16.8038      0.0701
O      7.4229     16.8961     10.9248
C     12.8379      3.1890      1.3891
C     13.1446      3.7707      3.6993
C      7.0630     10.8242      7.5882
H      9.6804     10.6410      8.3001
H     16.0521     23.1648     19.6056
H     12.2450      9.5417      3.9040
H     12.2505     21.3192     10.6190
O     13.1110     10.0347      5.5977
C      5.9891     11.6782      8.0042
C     13.4992      6.9769      6.4918
C     14.6582     20.7229     13.8032
H     15.1085     21.3579     15.8541
C     13.5827      7.5628      2.8990
H      8.6965     13.7659      7.9528
C     15.0101     -0.0998      4.1118
C      0.3141     15.3380      7.2712
C     10.0596     10.4032      6.3969
C     10.6431      3.1941      5.4385
C     17.8315     25.0868     17.3946
C      3.1072     16.9081     10.1804
C     13.9670      2.2023      1.6244
C     11.8045      8.0367      1.6338
C      3.8656     12.7444      8.5699
N     14.7324     -1.0238      5.0055
C     16.5777      1.2964      0.6530
O     16.9486     19.0330     14.8354
C      9.7264     19.6179      0.6731
H     18.5009     22.5462     18.8944
H     -0.5280     14.4832      7.3132
C     10.2852      4.6035      2.6500
C     10.7084      7.6965      9.2272
H      8.6530     15.5692      8.2580
H      1.5659     14.0904      6.7950
H      8.4950     17.1421     11.4835
H      8.2938      9.4129      7.9215
C     10.3826      9.9519      0.4177
H      4.2127      6.3816      9.2643
H     14.5168      7.2367      9.0832
H      9.7821      3.1688      4.6169
H     12.2609      9.8801      1.9581
H     13.8672     23.5875     12.2894
H     17.3353      2.1421      0.6728
H     -1.0727     16.0173      8.2113
C     15.0705     20.4879     15.4227
H     17.1215      0.1939      0.3311
C     13.0488     23.0745     11.6550
H     14.3738     -2.0204      4.7374
C      4.3295     21.0816      4.3108
C      7.7250     20.0670      2.9259
C     20.8397     22.5205     14.0629
C     18.7551     21.2050     14.6945
C      4.1428     18.9184      6.2545
C     14.9313      5.0690      2.0956
C      6.2658     18.5034     -0.1302
C      5.5486     20.4337      4.0450
C      8.3721     19.4891      0.6334
C      4.0973     17.9356      7.4483
C     14.7396      5.3043      0.6456
H      9.9889      6.0730      5.7329
C      6.1360     19.8798      5.4149
H     14.5013      1.6273      5.5830
H     10.0069      5.4581      2.3420
H     14.1384      1.6919      0.7924
C      7.3176     18.2851      0.7009
H     12.0473      3.9642      4.0729
O      7.3656     19.6206      5.4258
H      8.2977     21.6907     11.8552
H     13.1137      3.0257      3.0361
H      9.4498     11.1003      1.8046
H     15.4090      4.2314     -0.9947
H      8.6944     15.2038     10.1295
H      4.6824     17.8649      4.2396
C     12.7082     20.7518     11.5928
C     15.8280     19.1721     15.5613
C     11.1761      4.4332      4.9637
C     13.3289      6.8088      5.0285
H     17.7885     21.0777     20.2655
H     15.6520      1.8939      4.3559
C     14.1545      5.8169      4.3546
H      1.8557     11.8769      9.0732
H     15.7358     -1.0931      2.0555
H     15.0091     24.0224     15.3589
H     13.3240      8.2787      8.4012
C      8.9382      6.3755      8.5931
C      4.3699     13.9728      8.6359
C      6.2849     20.4599      2.8680
C      9.4015      9.4282      5.8388
C     12.7086      6.3405      3.0439
C     11.3451      6.5248      3.6882
H     15.2913      3.3910      0.3830
H      4.7713     17.9129     -1.3975
H     10.6199      3.6666      6.5070
C      1.9487     14.0365      9.3323
H     10.8692      9.3896      6.9304
C     13.7095      5.2111      3.1061
C     18.4736      3.5326      2.5320
H     13.8913      4.5399      7.5546
H      7.2757      8.9124      6.8415
C      7.5196     16.8904      9.5223
H     10.1966     12.2825      7.9855
H      7.0460     10.8301      6.3323
C     14.9653      6.3744      8.6555
C     11.1007      5.6351      5.8255
C     15.8551     -0.2921      2.9031
C     13.8830      4.8881      5.6061
C     14.8451      6.5579      6.8018
C     14.6609      4.1741     -0.2935
H     11.4749      6.0358      1.3363
H     17.3009      0.8929      2.7718
H     11.5911      7.8090     10.0852
H     15.7575      1.4407     -0.1280
H      9.3154      6.2920      7.6300
H      5.9357     13.6762      3.7416
C     12.6056      9.0104      4.7695
C      9.4199      6.9664      9.6770
H      4.1649     18.7356     -0.2289
H      9.3037      9.5195      3.1671
C      8.4332     11.8163      7.8054
H      9.7607      3.6597      2.2752
H      8.3686      9.1992      6.2989
C     12.9070      7.9855      7.2847
C     13.4409      3.5063      5.1240
O      8.5827     18.4269      4.3353
C     11.3436      8.1393      5.4502
C      6.2353     14.8830      7.2307
C      5.2804     14.9902      6.2530
C     16.2279      0.8394      6.0339
H      4.4688     16.1502      8.7441
H      6.6855     12.8294     10.0727
H     13.0320     10.8695      5.5759
H     18.4517     25.2745     18.2271
C     14.7205      4.8985      6.8922
H     13.1703      4.1621      1.1256
C      3.8170     18.0984      4.9235
C      3.4131     16.1780      8.9981
H     21.9245     22.0808     14.0449
H     13.6321      6.8780     -0.6599
C      8.4129     19.9219     10.8356
H      3.0700     16.2218     11.0798
H     11.7174     18.7793     12.2769
C     16.9615      2.8532      4.2602
C     17.5753     22.9960     18.8737
C      6.6164     12.8323      8.7134
C      7.2571      9.5040      7.7706
C      5.5338     17.2189      8.0844
C      5.8180     14.1175      8.4687
H     13.0553      5.3009      6.2665
H      9.3245     10.0487     -0.3960
H     10.1227     18.6774      0.9271
C     14.2963     23.1742     14.1259
H      4.1541     17.5997     10.3595
H     10.9827      9.4943      3.2699
