269

C     19.8699      9.0939     13.7551
N     -1.4238     10.3894      1.4759
C      4.0016      1.5713      7.1744
C      2.1971      2.8603      1.4635
C      7.6430      4.9089      2.1213
H     -2.9983      5.3966      1.4593
C      7.3147      3.7094      3.1569
C      3.2904      3.9199      5.3956
C     16.0176      7.0434     19.3602
C      5.9267      1.5789      3.9179
C     -7.3851      8.1663      9.4188
C     13.8441      8.5875     13.8308
N     -0.5032      2.7743      6.5674
C      0.4359      5.9859      0.4812
O     -1.5889      2.7442      1.0482
C      3.4796      3.7912      6.8967
C     15.5874      5.9466     17.4821
C     16.3342     10.1364     16.4973
H    -12.1501     13.7125      9.3477
H     -3.8100      3.6910      5.7905
H     17.1708      6.5419     15.2767
C     16.9186      8.8692     15.9828
H     -9.0717      7.4796     10.3969
H     -7.6764      9.2051      9.7826
H      8.3089      3.5877      3.5596
H     12.8875      7.7996     10.4463
H     -1.2332      5.4865      7.0722
H      8.7311      3.5779     10.4667
C      2.9277      2.5364      7.7277
H      6.6651      0.8371      3.8257
O     14.0023     10.8479     15.1903
C     -4.8699     12.3451      8.6068
C      7.1739      6.1194      9.5327
H      2.4025      0.0847      6.8278
H      2.8953      6.1949      9.3357
C      6.2132      2.9591      3.1611
H      6.5251      4.5987      7.1905
H     -8.0995     11.0225      9.3938
H     -8.3956      6.9660      8.7323
C     17.2084     10.5882     17.5298
C     -2.8605      8.1986      5.0914
O      1.9633      8.7402      4.5280
C     -1.5032      8.3839      6.9943
C      8.7941      8.4109     11.8515
C     20.6556      8.0124     12.8495
C      6.4538      7.3078     -0.6670
H      4.7388      3.8698      1.4420
H     17.4983     10.0267     13.9940
H      1.9369     -1.3048      3.8916
H     -4.6856      6.7933      7.7879
C      8.0883      3.4586      9.6287
C      7.3927      6.6010     10.9785
C      7.8237      5.7995      3.4011
H      7.9649      7.2783      2.2164
C     -1.0374      6.7930      5.1600
H     15.9865      8.4406     21.2860
H      2.5863     -0.4184      2.3420
H     15.2669      6.9760     13.5501
C     -3.3428     11.6136      7.0077
C      6.0613      5.0307      9.4811
O      5.9198      2.8135     10.7572
C     15.8492      7.4941     17.9208
C      4.6580      5.6855     -0.4760
C     17.4853      9.1110     14.7139
H     -3.3950      7.2136      5.3984
H      7.9804      7.5579      4.0500
H     -9.6246     13.8895     10.6231
H     -6.3882     12.3459      9.9255
H     17.4550     12.4722     16.7219
C      0.0850      3.5903      8.7645
C     13.2609      8.5423     12.3376
C      1.6343      1.9145      7.7070
H     -1.4473      7.4661      9.4360
C     -0.6556      6.3014      1.4627
H      5.8129      7.7973     -1.3646
H     -2.6363      2.2721      5.1233
C     10.0121      7.5224     12.5512
O     15.3309     10.6994     13.3344
C     -6.3781      8.2139      8.4572
C     16.5302      8.3942     20.2519
C     -9.7259     14.3082      9.6367
C      2.7373      1.6824      4.8639
H     -1.8185     11.1890      1.8771
H     -2.1924     10.3988     -0.5339
H     -7.1514     12.1522      6.9058
H    -10.2594     16.5916     11.2176
C      3.8581      3.2871      3.2779
H     -4.7143      8.8251      5.8123
C     -2.1144      8.3709      0.6209
C     11.1850      6.8664     11.5445
H     -2.0554     10.1781      6.6850
C      5.3189      2.0739      5.0632
H      3.8996      0.0525      5.5452
C    -10.3105     12.2560      8.4649
C     -8.2264     11.1558      8.2578
C     -2.0851      5.2291      3.5517
C     16.4055      9.4487     19.3759
C      2.3853      3.5574      2.7047
C     -8.2100      7.0074      9.8384
H     16.1063      8.6440     14.4645
H      8.7967      4.8357      1.7350
H      2.2061      5.6429     -0.9354
O      5.3331      6.9497      6.3137
C      0.5982      7.9757      4.4206
C     -2.8253      8.4795      3.5896
C     -2.0320      7.5673      2.8609
H     -6.7232      7.2273      7.8821
C     -2.5545      8.4059      7.9567
H      2.2155      4.1315      5.4869
H     13.8154      9.2160     10.5140
H      4.1076      3.8264     -0.4116
H     -0.2152      4.4722      8.2456
C      3.0365      1.7244      1.5663
C     -0.0085      8.4180      2.0806
O      4.8577      4.3038     -0.1123
O      7.0710      4.4369     11.7951
C     -0.4381      3.3958      1.4161
C     -0.6582      3.8804      4.2924
C     -5.9127     10.5287      7.3140
H     -3.3792      8.7299      7.4449
H     15.5211      9.4498     18.7373
H      0.1390      5.8969     -0.6370
O      0.3208      9.6740      5.7441
C     -6.9131     11.6375      7.7901
C      0.5772      7.2412      6.7509
C     15.0456      7.9230     14.1237
C      0.7513      7.4919      3.0322
H     -4.0852     12.9671      9.0361
C      2.5057      0.5284      3.8691
C      0.1772      2.5459      7.8167
C     -2.8621     10.5566      6.0298
C     -2.7745      3.5092      5.4830
C     17.7363     11.9464     17.5194
C     -9.8868     16.7605     10.2106
C      0.7833      2.7495      1.1174
C     -1.2587      7.6515      1.6238
C     -9.0618     12.3720      8.3493
N      2.0808     -0.4237      4.4336
C      3.7432      1.4863      0.2954
O     16.6188      5.6238     14.9378
C      9.2435      6.3247      0.1445
H     18.4607      9.7013     19.1045
H     -0.2669      1.4704      8.0985
C     -2.7120      5.0104      2.3641
C     -2.5245      7.8963      9.1330
H      8.6652      3.7032      8.8494
H      1.3696      1.3746      6.6219
H      6.3508      5.1505     11.7680
H     -4.7469      9.7281      9.1670
C     -2.0435      9.7651      0.4128
H      2.0858      7.7883      9.2220
H     -0.9689      9.3706      3.9472
H     14.7219      9.9848     11.9023
H      3.4950      0.8640     -0.5953
H      0.8923      3.5052      9.4033
C     14.9304      7.3055     15.4254
H      4.0045      2.5899      0.1680
H     -1.8671      9.8582      2.3616
C     14.0507      9.1653     11.5416
H      4.8817      3.3581     11.3519
H     15.2455     10.3549     16.5833
C      4.1007      8.0969      4.3540
C      7.5500      7.3087      3.1067
C     20.8170      9.8142     14.8681
C     18.9039      8.5272     14.7304
C      4.0821      5.8595      6.5070
C      1.7089      4.8140      2.5051
C      5.9417      6.2478      0.1968
C      5.4622      7.5822      4.2975
C      8.1028      6.6300      0.7666
C      4.2825      4.8434      7.5710
C      1.3910      5.2257      0.9300
C      6.1312      6.5486      5.2594
H      9.5316      5.3518      0.0086
H      0.8440      1.9615      0.4009
C      6.9869      5.7675      1.1297
H     -1.4061      3.3735      3.7806
O      7.3977      6.8615      5.6707
H      9.0850      9.4014     12.0221
H     20.6734     10.8809     14.9182
H      1.6040      3.1450      3.2493
H      0.3001      9.5235      2.4564
H      3.1738      4.0304      0.1181
H      4.6146      4.8750      4.4924
C     12.3086      7.7467     11.5566
H      6.3842      5.4138      4.8926
C     15.5280      6.0135     15.7924
H      1.1461      6.5269      9.3099
C     -1.8390      4.5745      4.9138
C      0.3040      6.8996      5.3443
H     17.3774      8.0765     20.1264
H      1.7624      2.0472      5.2119
C      1.0794      5.7322      4.8504
H    -10.7920     11.3070      8.5425
H      1.2979      0.3910      2.1981
H     16.4516     11.2357     15.8495
H      0.2200      7.8770      8.5600
C     -4.6129      6.3820      8.8986
C     -8.4490     13.6671      8.4555
C      6.2189      7.6801      3.0670
C     -3.7669      9.4456      5.4237
C     -0.1616      6.2707      2.8150
C     -1.4437      6.6004      3.6659
H      4.0928      6.0995     -1.6679
H     -2.2017      3.3763      6.5612
C    -10.9793     13.7136      9.0564
C      0.4819      5.1008      3.7249
C      5.0523      3.4988      2.4935
H      1.1278      4.6715      8.1264
H     -4.7941      8.9387      7.4625
C      6.8390      3.8998     10.4004
H     -2.6977     12.6039      6.7009
H     -5.4198     10.0310      6.4933
C      2.0237      6.7836      8.8186
C     -1.6008      5.5939      5.9692
C      2.3496      0.5921      2.3920
C      0.7533      4.7066      5.9668
C      1.9110      6.6159      7.2923
C      2.3016      4.8041     -0.1216
H     -1.4194      5.5458      1.1327
H      4.0306      2.0347      2.4212
H      4.6410      1.3889      0.8499
H     -3.9554      5.5773      8.4280
H      7.7766      2.4461      9.2906
H     -2.2850     11.0652      5.2870
H      5.1315      1.2484      3.3976
C     -0.4259      8.9631      4.7309
C     -3.7447      7.2920      9.6052
H      3.7081      5.6725      0.2654
H     20.8927      9.2415     15.8395
C     -4.7093     11.5053      7.5069
H     -2.7954      3.8784      2.4072
H     -4.1432      9.7851      4.4962
H     -6.8444     14.4915      9.4557
C     -0.2816      7.8185      7.6635
C      0.0252      3.6421      5.5838
O      8.6059      5.3576      4.2405
C     -1.4757      8.2275      5.5000
C     -6.6513     14.2784      7.1466
C      5.1875      1.8698      6.4158
C      3.2956      0.6647      6.3106
H      7.0052      7.5556      6.2634
H     -5.7418     14.7747      7.3482
H      5.6253      3.2641      8.4453
H      0.7480     10.1336      4.7168
H     18.6050     12.4534     17.5840
C      1.7425      5.1065      7.1382
H     -0.6523      3.9369      2.5556
C      3.8162      5.2081      5.0992
C     -9.7781     15.7063      9.2704
H     21.7014      9.6902     14.3159
C      8.4940      7.5510     10.7261
H      3.7718      5.0377      8.3955
H     10.5623      6.9631     10.5328
H     -6.2378     13.3361      6.5864
C      3.8968      2.6418      4.7224
C     17.5552      9.8355     18.6124
C     -6.3322     12.5167      8.8029
C     -5.4171      9.3228      8.3458
C      5.9000      4.4275      8.2028
C     -6.9348     13.8488      8.6775
H     -0.6596      3.2530      9.7735
H      1.3452      4.1628     -0.7833
H     19.6239     10.1550     13.3143
H      8.3003      5.9308     10.8323
H     -0.8085      1.9658      6.1859
C     14.4755     10.2069     14.1026
H    -10.7197     17.5439     10.0060
H     -3.0988      9.5625      3.0666
