263

C     19.7297      8.6342     13.4468
N     10.5037     10.6800     14.5408
C      3.9020      1.3948      7.1360
C      2.2190      2.4932      2.0691
C      7.6653      4.8973      2.3500
H     -3.0170      7.3000      1.9755
C      7.5446      3.6057      3.0097
C      3.3292      3.9773      5.2503
C     16.1438      7.2127     19.3086
C      6.1324      1.8645      3.8552
C     -7.6007      8.3855      9.3758
C     13.6885      9.0916     13.9351
N      0.7664      2.3257      5.8172
C      0.1665      5.4570      0.7809
O     -1.3684      2.4125      1.9028
C      3.0954      4.0023      6.6446
H     13.6775      7.2447     12.5053
C     15.8429      5.9912     17.3220
C     16.7696     10.4586     16.6007
H     -1.5835      2.4073      4.9201
C     17.1382      8.9355     16.3050
H     -8.3371      6.6968     10.7046
H     -8.2805      9.1240      9.9488
H     -0.9243      5.5425      6.5940
H     -6.5942     14.6434      9.3140
C      3.0479      2.6915      7.5378
H      7.1855      1.9066      4.4944
O     14.0972     10.7563     15.4395
C     -4.9345     13.0620      8.1881
C      6.2873      6.1201      9.5108
H      3.9952      5.3903      8.1301
C      6.3823      3.0158      2.9156
H      5.9993      3.6464      7.0513
H     -8.2216     10.2154      7.9871
H      3.2891      6.8481      8.8142
C     17.1483     10.9680     17.6879
C     -2.7938      8.6992      4.9352
O      1.9980      8.4227      4.7884
C     -1.3848      8.5276      7.0014
C      8.8500      7.9803     11.7480
C     20.6021      7.6364     12.6809
C      6.6114      6.7077     -1.0435
H      4.8194      3.7454      1.2958
H     17.3327      9.6398     14.3423
H      1.3660     -0.9073      5.5157
H     -5.2174      5.7830      8.1122
H     15.5335      9.8383     12.7848
C      7.6850      2.7472      9.4093
H      1.1544      1.7141      2.6874
C      7.1761      6.6036     10.5698
C      7.9880      5.8906      3.2353
H      8.0974      7.5278      1.9519
C     -1.3931      6.9797      5.0742
H     15.2834      9.0045     20.7892
H      3.7323     -0.2278      3.0180
C     -3.1759     11.4056      7.4144
C      6.3079      4.8800      8.8128
C     16.0231      7.5549     17.9155
C      4.8611      5.3197     -0.3047
C     17.9217      8.9486     15.2094
H     -3.6401      7.7994      5.0645
H      8.2743      7.6968      3.9101
H     -8.9319     14.5676     10.4553
H     18.7390     11.9785     17.2985
C     -0.1207      3.1751      8.1429
H     21.3055      9.5417     12.9865
C     12.6664      8.8969     12.5259
C      1.7091      1.6814      7.7700
H     11.2675      6.8136     10.2094
C     -0.3740      6.5288      1.4704
H      5.6534      7.3735     -1.0665
H     19.1064      8.7951     12.6109
C     10.2052      7.4891     12.2926
O     15.3383     10.6997     13.4704
C     -6.4846      8.4115      8.7127
C     16.3497      8.5182     20.2422
C     -9.4542     14.7309      9.4337
C      2.6187      1.0234      4.9864
H     11.0489     10.5603     15.5415
H     -6.8357     11.9227      6.7793
H    -11.1964     17.2865      9.6402
C      4.1863      3.2650      3.0604
H     -3.4302      8.1056      6.8233
C     11.1298      8.5327     13.2284
C     11.4615      6.9670     11.3981
H     -1.9027     11.1335      5.5424
C      5.1605      2.0654      4.8995
H     17.0055     13.0245     17.8688
C    -10.5367     12.7359      9.1665
C     -8.3596     11.3994      8.1707
C     -2.3617      5.2247      3.5583
C     16.6285      9.4351     19.2917
C      2.7868      3.6275      2.5674
C     -7.9138      6.9354      9.6341
H     15.7309      8.5765     13.9595
H      9.3486      6.1054      4.6647
H      0.5942      4.0465     -0.5662
O      5.6941      6.9467      6.4799
C      0.7638      8.0592      4.5215
H     -9.0705     11.4919      7.2089
C     -2.6961      8.7014      3.3902
C     -2.3558      7.5244      2.6228
H     -6.2413      7.1928      8.4519
H      8.2822      3.5123      3.6548
C     -2.6675      8.2675      7.5494
H      2.5550      4.0074      4.2879
H     11.9096     10.5641     11.3493
H      3.4110      4.3588     -0.5937
H      0.5542      3.1597      9.0814
C      3.1774      1.4142      2.0305
C     -0.0786      8.7311      2.2745
O      4.2102      4.0568     -0.1750
O      7.3615      4.2690     11.2000
C     -0.4721      3.0722      1.7206
C      0.0267      4.0825      3.7488
C     -5.7317     10.6499      7.5413
H     -3.3777      9.1930      7.8223
H     15.7009      9.8740     19.0552
H     -0.7297      9.6093      4.2002
H     13.4120      7.8113     10.9536
O      0.6218      9.8223      6.1465
C     -6.9726     11.7158      7.8549
C      0.7420      6.9208      6.8111
C     14.9531      7.8353     13.9776
H     15.2716      8.5943     15.7311
C      0.6081      7.6450      3.1006
H     -4.5755     13.9505      8.9196
C      2.1594      0.1285      3.9735
C      0.3574      2.2240      7.0416
C     -2.6787     10.7839      6.1192
C     -2.1004      3.2023      5.7256
C     17.9174     12.2884     17.7983
C    -10.3543     16.8503      9.9971
C      0.8104      2.2372      1.7257
C     -1.1270      7.7911      1.5344
C     -9.1657     12.4698      9.0874
N      1.4410     -0.8368      4.5643
C      3.6255      0.9720      0.7476
C      9.6686      6.4223      0.2143
H     18.5397      9.6730     19.4276
H     -0.5166      1.5194      6.9945
C     -3.0171      4.6028      2.4329
C     -2.4850      7.8972      8.9262
H      7.2450      2.8144      8.4243
H      1.7820      0.6274      7.2222
H      7.1332      3.1454     11.2765
H     -4.6287      9.1887      8.0698
C     10.3838      9.7658     13.4712
H     -8.3003      6.2212      8.8791
H      1.7642      7.7703      9.0106
H     -3.1791      3.0823      6.1746
H     -0.2503      9.9184      2.5082
H     13.6534     10.3077     12.4298
H      4.6861      1.3162      0.7364
H     -1.2937      2.6987      8.4660
C     14.9056      7.5255     15.3420
H      3.3658     -0.1678      0.3339
C     13.0127     10.0919     11.6163
H      1.3435     -1.9304      4.7002
C      4.4778      8.0078      4.2990
C      7.9173      7.2666      3.1216
C     20.8931      9.6013     13.9746
C     18.8740      8.1662     14.7680
C      4.4736      6.0504      6.1621
C      2.0779      4.8909      2.3332
C      6.2328      5.5978      0.0030
C      5.7146      7.2243      4.1304
C      8.2725      6.5799      0.4321
C      4.5881      5.0653      7.1969
C      1.5703      5.1762      0.9438
H     -2.6191      6.2997      6.4236
C      6.3587      7.0153      5.4053
H      0.8160      1.4045      5.3360
H     -2.0883      4.6744      1.6783
H      0.9060      1.2460      1.0783
C      7.3899      5.4816      0.8994
H     -0.9437      3.9035      3.4341
O      7.5951      7.0722      5.4714
H      8.7852      9.0564     11.3870
H     20.9614     10.6817     14.5048
H      0.5784      2.9242      3.6644
H     10.1235     11.6540     14.4295
H      4.7140      5.5449      4.2639
C     12.7960      7.6820     11.7769
C     15.7465      6.0965     15.6966
H      2.0146      6.1780      9.5306
C     -2.1162      4.6594      4.9965
C      0.4731      6.7708      5.3206
H     17.0465      8.4169     21.1547
H      2.6274      1.9608      4.6844
C      1.2648      5.6209      4.6852
H    -11.5041     12.0672      9.1844
H      2.3228     -0.5717      2.0910
H     16.8540     11.0510     15.7813
H      0.1490      7.7336      8.5681
C     -4.3273      6.4589      8.2479
C     -8.5789     13.8560      8.6298
C      6.4261      7.3623      3.0008
C     -3.5078      9.8151      5.7696
C     -0.0347      6.5260      2.9067
C     -1.5095      6.6368      3.5169
H      1.9047      3.1017      0.2934
H      5.0905      5.4074     -1.3938
H     -1.4033      3.3301      6.5921
C    -10.8490     14.2138      9.1443
H     -1.1460      9.5531      7.7709
C      0.8407      5.3140      3.3077
C      5.2009      3.2745      2.2712
H      1.4850      4.4962      8.0650
H     -5.5355      8.5169      6.7780
C      7.2081      4.0038      9.7413
H     -2.6919     12.4215      7.8108
H     -5.4558     10.6362      6.4251
C      2.2579      6.8889      8.7184
C     -1.8040      5.9029      6.0242
C      2.8518      0.1866      2.7012
C      0.7586      4.6821      5.7639
C      2.1241      6.5079      7.2026
C      1.5208      3.9647     -0.2206
H     -1.2973      5.8405      1.3740
H      4.2882      1.5883      2.3981
H     -1.7371      7.6081      9.6464
H      3.1113      1.4003      0.0439
H     -4.3083      6.9889      7.1687
H      5.9212      0.9973      3.3203
C     -0.2445      9.0840      4.9227
C     -3.5961      6.8545      9.2652
H      4.0980      6.0104      0.2545
H     -3.7487      9.1776      3.4536
C     -4.5249     11.8180      7.7375
H     -2.7622      3.3004      2.5219
H     -4.7131      9.8450      6.2271
C     -0.1614      7.6594      7.4795
C      0.3431      3.5930      5.3592
O      8.6033      5.5242      4.2879
C     -1.4525      8.4078      5.4892
C     -6.6395     14.5544      7.1662
C      5.2130      1.7345      6.3296
C      2.9448      0.6381      6.3943
H     -4.5808     13.5540      7.0098
H     -8.4913     16.6578      9.1278
H     -6.4667     12.0620      9.8853
H      0.0385     10.6221      6.2825
H     18.2598     12.6166     18.8313
C      1.9525      4.9672      6.9717
H     -0.1449      4.2329      1.4382
C      4.1110      5.2873      4.9935
C     -9.4223     16.1792      8.9453
H     -0.0232      5.3273     -0.3486
C      8.5402      7.0344     10.5933
H    -10.3925     15.8883     10.6009
H     11.9104      6.2958     12.0056
C      4.1271      2.9613      4.5007
C     17.7244     10.0569     18.7285
C     -6.4726     12.7576      8.7762
C     -5.4958      9.0339      7.7054
C      5.8698      4.6014      7.5628
C     -7.1277     13.9866      8.6522
H     10.3105     10.7551     12.7490
H     10.2744      5.4985      0.2704
C     14.3426     10.3552     14.3106
H     -9.7099     17.6816     10.5786
H     -1.9402      9.4317      3.0780
