265

C     20.2062      8.9934     14.1382
N     -1.6169     10.6916      1.3193
C      3.7635      1.5963      7.1232
C      2.0168      2.6622      1.4421
C      7.4423      5.1199      2.4703
H     -2.4280      3.9194      1.8374
C      7.0819      4.0187      3.1534
C      3.6585      3.8267      5.4426
C     -6.5269      9.7625     10.8739
C     16.0267      7.1231     19.7162
C      6.2010      1.8596      3.9125
C     -7.1171      8.6629     10.1244
C     13.7447      8.6510     13.7676
N     -0.0230      2.5161      6.0353
C      0.4062      5.6887      0.7155
O     -1.6565      2.7917      1.3399
C      3.1316      3.8937      6.8780
C     15.6696      6.2197     17.6467
C     16.5111     10.3439     16.6963
H     -2.6508      3.1633      3.6906
H     17.3909      5.3706     15.2549
H     -7.1243     11.2165     12.6779
C     16.8429      8.9528     16.2879
H     -8.0576      7.0677     11.5131
H     -5.9150     10.3734      9.8885
H      7.9679      3.7382      3.9012
H     13.1166      6.9138     10.3869
H     -0.8292      5.3389      7.0191
C      2.8738      2.6329      7.5137
H      6.6343      0.9255      3.9673
O     14.6362     10.2710     15.4382
C     -4.8834     13.1373      8.7644
C      6.4736      5.9954      9.8832
H      2.4755     -0.0067      6.4520
H      2.1135      7.1449      9.3969
C      6.1222      3.0804      3.0320
H      6.1562      4.4901      7.4708
H     -5.4841      9.6062     11.4488
H     -8.4858     11.5866      9.8019
H     -8.6565      7.2096      9.8322
C     17.8311     10.9683     17.8046
C     -2.9285      8.3794      5.2356
O      1.9252      8.7411      5.1591
C     -1.4558      8.1302      7.2072
C      9.0842      7.9252     11.9571
C     20.6825      7.7002     13.1014
C      6.4775      7.1669     -0.4236
H      4.6256      4.2332      1.8206
H     17.4138     10.0445     14.5168
H      1.5313     -0.6645      3.4451
H     -5.2707      6.2052      7.9591
H     14.1158      9.4733     16.1619
C      7.0574      6.2780     11.2330
C      8.2269      5.9095      3.7115
H      7.9995      7.1308      1.8941
C     -1.0812      6.7688      5.2575
H     16.2002      8.7157     21.4566
H      2.5080     -0.5772      1.5610
H     -7.7802     11.7206     11.1608
H     15.3635      7.3840     13.0925
C     -3.1443     11.7687      7.2783
C      5.5307      4.9527      9.4933
C     15.8416      7.5182     18.2879
C      4.6116      6.1088      0.3883
C     17.6962      8.9374     14.9474
H      8.2943      8.0911      3.8809
H     -9.2741     14.0785     10.4454
H     -6.5797     12.8215     10.0000
H     17.3199     13.1374     17.1057
C     -0.2852      3.4428      8.3546
C     13.3190      8.5491     12.0970
C      1.5300      1.7149      7.4897
H     -2.7894      8.5873      9.7891
C     -0.6359      6.0656      1.6549
H      5.9451      8.0909     -0.8523
H     -2.3409      2.3307      5.1380
H     -8.2185     10.4779     12.0437
C     10.3604      7.3622     12.6410
O     14.3307     11.0151     13.1444
C     -6.6522      8.6266      8.5752
C     16.5218      8.4318     20.2491
C     -9.7530     14.2963      9.4939
C      2.8741      1.5202      4.9289
H     -0.6333     10.3946      1.2744
H     -2.8466      9.8293     -0.2178
H     -7.0508     11.8940      7.0208
H     -9.3707     16.9140     10.6890
C      3.5171      3.2197      3.1982
H     -4.5906      9.3346      6.1277
C     -1.7503      8.2972      0.5832
C     11.3873      6.8288     11.5285
C      5.1229      1.9507      5.0542
H      3.9115     -0.0371      5.9013
H     -4.3323     14.1971      8.6359
C    -10.3993     12.2260      8.1546
C     -8.0747     11.2844      8.8057
C     -1.9363      5.1248      3.6978
C     16.5419      9.6930     19.3654
C      2.2211      3.5855      2.7523
C     -7.9435      7.6767     10.5336
H     15.5106      9.0633     14.4569
H     -3.6420      5.0936      2.6346
H      1.7546      3.6034     -0.0697
O      5.6068      6.3899      6.7356
C      0.8980      8.0657      4.4719
H     -7.9215     10.2562      8.2761
C     -2.5193      8.7038      3.7629
C     -2.0950      7.6699      3.0303
H     -7.3691      9.2465      8.0099
C     -2.7189      7.6303      7.7120
H     13.6434      9.6522     10.2723
H      6.6217      2.6764      2.2557
H      0.4570      3.7082      9.0922
C      3.0418      1.7343      1.0301
C     -0.0544      8.4876      1.9696
C     -0.2759      3.3018      1.4584
C     -0.0271      4.0451      4.0087
C     -5.4663     10.9513      7.7925
H     -3.5670      7.3065      7.3901
H     15.8520     10.7555     19.5628
H      0.7907      6.4102      0.0002
O      0.0716      9.9043      6.0018
C     -6.6406     11.7403      8.0821
C      0.7773      7.1541      6.8446
C     15.2386      8.0589     14.0923
C      0.8231      7.6409      3.0095
H     -4.5508     12.7705      9.6904
C      3.0567      0.5233      3.3697
C      0.2278      2.2063      7.5643
C     -2.6390     10.5875      6.4882
C     -2.5879      3.3573      4.9153
C     18.1890     12.2953     17.6560
C     -9.9556     16.8092      9.8077
C      0.6914      2.3795      1.1678
C     -1.1984      7.5903      1.6142
C     -9.0541     12.3385      8.1795
N      2.3158     -0.4563      3.9243
H      3.7237      1.3190     -1.0190
C      2.7724      1.5370     -0.5358
O     17.1474      6.3150     15.3357
C      9.6178      6.2734      0.4644
H     18.1525      8.9355     18.4433
H     -0.2581      1.0865      7.5766
C     -2.5980      4.8333      2.6029
C     -3.2975      7.9694      8.9567
H      1.2116      1.1355      6.6103
H      7.0829      4.6333      0.4166
H     -4.7048      9.2172      7.6947
C     -2.1789      9.6613      0.7286
H      4.7113      5.2740     10.3832
H      1.0967      5.8978      9.2686
H     -0.8465      9.5731      4.1017
H     14.9875      9.8553     11.7915
H      2.2238      2.2224     -1.0988
H     -0.8832      2.9306      8.9879
C     15.0951      7.4168     15.3746
H     -1.5093     10.6421      2.4973
C     14.1921      9.1668     11.2206
C     -7.4269     10.8852     11.7980
H     15.5467     10.6186     17.0972
C      4.2570      7.9512      4.4690
C      7.8430      7.1085      3.8312
C     21.5701      9.1683     14.8555
C     19.0255      8.5076     15.1404
C      4.1016      5.9128      6.5094
C      1.9309      5.0844      2.6398
C      5.7927      6.4446      0.5212
C      5.5053      7.2634      4.5425
C      8.0985      6.5200      0.8551
C      4.0479      4.8038      7.6289
C      1.5479      5.1470      1.1933
H     -2.3367      5.2551      6.8588
C      6.3726      6.7066      5.7020
H      9.7466      5.3504      0.0310
H      0.6949      1.9991      0.2442
C      7.0858      5.5886      1.0275
H     -0.4611      3.0862      3.6396
O      7.4963      7.0754      5.9398
H      9.2807      9.2159     11.8614
H     22.0264      8.1371     14.5109
H      1.6499      3.0685      3.4410
H     -0.5369      9.4729      2.6302
H      2.6891      5.2471     -0.7646
H      4.8097      5.6403      4.4300
C     12.6759      7.4393     11.3217
C     15.7887      6.2942     15.9206
H      3.2021      6.5840      9.2204
C     -1.6006      4.5454      4.8721
C      0.4657      6.8736      5.4298
H     17.6381      7.9814     20.3695
H      1.8154      1.7436      4.8504
C      1.2130      5.7432      4.8676
H    -10.4172     11.1477      8.3969
H      1.5677      0.7845      2.1428
H     16.6306     11.1348     15.9064
H      0.2781      7.6828      8.7811
C     -5.2497      6.2874      9.1239
C     -8.6409     13.8778      8.3737
C      6.3806      7.4264      3.1707
C     -3.4488      9.5000      5.8996
C     -0.1027      6.2924      3.0574
C     -1.5096      6.5953      3.8703
H      4.0288      6.9155      0.5601
H     -3.4246      3.4156      5.7979
C    -10.9608     13.6048      8.6696
C      0.7073      5.1599      3.5698
C      4.7671      3.5271      2.5191
H      0.9435      4.2224      7.7322
H     -6.6029      7.7136      7.9093
H     -2.2419     12.5826      7.6361
H     -5.4949     10.9255      6.6121
C      2.1377      6.3302      8.7683
C     -1.4439      5.4998      6.1067
C      2.6762      0.5529      1.8569
C      1.0479      4.7680      5.9774
C      1.8629      6.4176      7.3221
C      2.3050      4.6320     -0.0577
H     -1.4510      5.3767      1.8063
H      4.1671      1.9839      1.3616
H      2.1562      0.4615     -0.5616
H     -1.8560     10.9661      5.8342
H      5.3224      1.3377      3.6294
C     -0.5303      8.9437      4.9566
C     -4.3842      7.2441      9.6659
H      4.5127      5.0826      0.5387
H     22.5104      9.7560     14.8800
C     -4.3352     11.8326      8.1282
H     10.1380      6.2108      1.6770
H     -3.9552     10.3080      5.0345
C     -0.1004      7.7562      7.8046
C      0.4312      3.6009      5.3708
O      9.0986      5.2990      4.6332
C     -1.4860      8.1524      5.6638
C     -6.6098     14.7085      7.0600
C      5.0889      2.1711      6.4106
C      3.1731      0.6193      6.0629
H      8.3979      4.8120      5.5578
H     -6.0132     15.8076      6.9748
H      5.5062      3.1186      8.0146
H     -4.8145      9.3458      9.2717
H      0.6433      9.1559      6.5955
H     19.3556     12.4206     18.3877
C      1.7505      4.9209      7.1391
H      0.0977      4.1827      2.2438
C      3.8638      5.3409      5.0423
C    -10.0151     15.6660      9.1068
H     21.6049      8.8439     15.8812
C      8.4594      6.9580     11.0211
H      3.5151      5.3436      8.3254
H     10.8949      6.4873     10.5051
C      3.9118      2.7463      4.6045
C     17.7427      9.7740     18.7649
C     -6.2802     13.0688      8.8221
C     -5.4140      9.5896      8.3896
C      5.4241      4.2054      8.2626
C     -7.2309     14.0645      8.3168
H     -0.7809      3.9855      7.5740
H      3.1242      3.9708      0.5220
H     19.9002      9.6982     13.5005
H     -1.4839      1.9843      0.7411
H      7.3370      5.2600     11.6950
H     -1.0126      2.3151      5.5549
C     14.2720     10.0554     14.0167
H    -10.1293     17.7585      9.3499
H     -2.6530      9.6599      3.4510
