266

C     19.6066      8.6471     13.4319
N     -3.1379     10.4545      2.1172
C      4.1340      1.6187      7.3201
C      2.3120      2.6628      2.1078
C      7.4414      4.7107      1.9737
H     -3.2985      6.3292      2.6676
C      7.6333      3.3541      2.0484
C      3.6749      3.9456      5.2738
C     16.1829      7.2162     19.3576
C      6.4321      2.1771      3.7532
C     -7.1711      8.4803      9.7071
C     13.4154      8.7643     14.1063
N      0.5862      2.3706      6.2611
C      0.5371      6.2473      0.6437
O     -1.1693      2.5009      1.3001
C      3.1597      3.9085      6.8420
H     13.4929      7.2690     11.4932
C     15.5701      6.1939     17.3242
C     16.9999     10.4053     15.9621
H    -11.6982     14.1754     10.0414
H     -3.0544      2.8674      4.9395
H     17.5104      5.7413     15.9887
C     16.6039      9.0132     15.8558
H     -8.6768      6.7697      9.9947
H     -6.6791      8.7364     10.7295
H    -10.4011     17.6598      9.2104
H     -2.5217      6.1667      6.7081
H     -6.9209     14.8041      9.5037
C      3.1116      2.6405      7.6590
H      6.8630      2.9669      4.5024
O     13.8980     10.4316     15.5368
C     -4.9477     12.1984      9.4588
C      6.2079      5.9037      9.6940
H      3.8541     -0.2047      6.3698
H      3.8908      5.3302      8.4718
C      6.3416      2.8458      2.5271
H      5.9967      3.1467      7.6560
H     -8.8289     12.1428      9.9841
H      2.9184      7.4131      9.1990
C     17.7465     10.7024     17.1937
C     -3.0304      8.3299      5.1887
O      1.8802      8.7292      4.8755
C     -1.4215      8.1723      7.1410
C      8.7694      7.8105     11.8714
C     20.5973      7.7946     12.8188
C      6.4382      6.8830     -1.0329
H      5.7879      4.7275      2.1115
H     17.3521      9.5697     13.8194
H      1.9210     -1.1929      5.5006
H     -5.4759      6.4842      7.7829
C      8.0897      2.8382      8.4897
H      1.6435      1.0377      1.2216
C      7.0915      6.4266     10.7550
C      8.0518      5.5599      3.0065
H      8.0877      7.4351      2.1365
C     -1.0384      6.7432      5.3377
H     16.6751      8.3556     21.2759
H     17.0864     11.1927     15.2059
H      2.6523      5.7252      1.0475
C     -3.3596     11.2606      7.3616
C      6.2173      4.8209      8.8574
C     15.9918      7.6709     17.9468
C      4.7153      5.5274     -0.2436
C     17.4410      8.8671     14.5634
H     -3.6019      7.4673      5.5395
H      7.8755      7.2105      4.1601
H     -9.0548     14.3333     10.9051
H     19.0966     12.7247     16.9568
C     -0.1701      3.7160      8.2214
H     19.2670     10.4911     14.5997
C     12.9282      9.0268     12.7120
C      1.8817      1.7445      8.0860
H     11.4088      6.1185     11.3462
C     -0.6731      6.0688      1.6052
H      5.7606      7.7244     -1.1156
H     19.2771      9.1173     12.7657
C     10.0619      7.4238     12.6930
O     15.4947     10.1119     13.8279
C     -5.9339      8.7505      8.8018
C     16.7781      8.2529     20.1402
C     -9.4414     14.5150      9.8279
C      2.3636      0.9269      4.7854
H     -4.0277     10.1693      2.4515
H     -3.4225     11.4189      1.5168
H     -6.7878     12.7111      6.9057
H      1.7120      6.1112      9.5485
C      4.1828      3.4620      3.1418
H     -2.7837      9.9794      8.3246
C     -2.3433      8.2737      0.7746
C     11.4880      6.9248     12.0079
H     -2.7525     11.8795      5.6933
C      5.2137      1.7835      5.0590
H     17.3523     12.5942     16.8094
C    -10.6557     12.4630      9.0829
C     -8.3053     11.3499      8.5024
C     -1.8925      4.8705      4.0964
C     16.8488      9.6768     19.3515
C      2.8907      3.8395      2.5213
C     -7.7658      6.9761      9.3303
H    -10.8755     11.8425      9.9623
H     14.8298      7.8996     12.9149
H      8.3869      4.0897      4.3771
H      0.4048      4.3620     -0.4272
O      5.6418      6.6035      6.4987
C      0.5294      8.1845      4.7050
C     -2.9991      8.4485      3.5619
C     -2.4618      7.2298      2.9126
H     -5.0841      9.3734      8.9534
H      8.4678      2.8421      1.8839
C     -2.6184      8.8546      7.8967
H      2.7912      3.7787      4.9182
H      3.9415      4.2227      0.8768
H      0.1922      3.4219      9.1495
C      3.4337      1.5130      1.9885
C     -0.3905      8.2977      2.1734
O      4.1309      4.2694      0.0271
O      7.7193      3.9428     10.5440
C      0.0068      2.7373      1.4374
C      0.2332      3.5301      3.9834
C     -5.9910     10.8014      7.4857
H     -0.6985      9.6900      4.0383
H     12.5083      8.2909     10.4326
O     -0.0152      9.9722      6.1086
C     -6.9743     11.5074      8.3161
C      0.6993      7.1207      6.9456
C     14.2680      7.5708     13.9342
H     15.4896      8.4407     15.8474
C      0.4290      7.4936      3.2215
H     -4.6718     13.4013      9.1390
C      2.5592     -0.2493      3.8013
C      0.6490      2.3398      7.5773
C     -2.9640     10.8091      6.0661
C     -2.6336      3.4781      5.8754
C     18.0001     12.0691     17.3844
C    -10.0500     16.9583      9.9920
C      1.1897      1.7992      1.7235
C     -1.3654      7.4005      1.7535
C     -9.0895     12.5198      8.8202
N      2.0940     -1.4120      4.4448
C      3.5967      1.4136      0.5877
O     16.8485      6.0262     15.3267
C      9.5867      6.1797      0.5017
H     18.4136      9.8549     18.2354
C     -2.1007      3.9639      3.1540
C     -2.9548      8.2220      9.2790
H      7.0086      2.4539      8.0210
H      2.1329      1.0334      7.1174
H      8.6418      3.6899     10.8601
H     -4.8190      9.3865      6.0637
C     -3.1330      9.4030      0.8642
H     -8.0194      7.0184      8.4201
H      1.2265      7.3509      8.9471
H     -1.1323      9.1448      2.7080
H     13.4809     10.4785     11.2499
H      2.8366      1.3856     -0.1196
H     -1.2036      3.6233      7.5169
C     14.7941      7.4713     15.2836
H      4.2768      2.2117      0.0824
C     13.5418     10.1776     12.1689
H      2.4429     -2.1448      3.8940
C      4.1038      8.2539      4.2205
C      7.6560      6.9502      3.0102
C     20.1957      9.8367     14.2531
C     18.6574      8.0846     14.4293
C      4.3786      5.8934      6.2424
C      1.7469      5.0025      2.5313
C      6.1348      5.7793     -0.0869
C      5.4793      7.5713      4.0620
C      8.2397      6.5689      0.6189
H     14.0829     10.9411     12.5343
C      4.1646      4.8987      7.4762
C      1.5439      5.1765      1.0057
H     -3.4232      8.3395      7.2286
C      6.2259      7.3226      5.4880
H      1.2125      1.0364      4.8046
H     -2.5286      4.0582      2.3084
C      7.0243      5.6605      0.7906
H     -0.8378      3.3311      3.7683
O      7.4332      7.1146      5.6081
H      9.1571      8.5080     11.1190
H     20.9762      9.2037     14.9212
H      0.7902      2.6380      3.7615
H      2.3760      3.9597     -0.8946
H      8.1171      1.8727      9.0588
H      5.0009      6.1484      4.6493
C     12.4661      7.9717     11.6105
H      6.2017      4.7648      6.9339
C     15.3459      6.2187     15.8994
H      0.2972      8.2955      8.9032
C     -1.9512      4.6347      5.5314
C      0.4314      7.0436      5.5432
H     -7.7577      9.5391      9.7792
H      2.6644      1.8813      4.0938
C      1.2376      5.6362      4.9017
H    -11.4698     12.2698      8.2520
H      2.7836     -0.9224      2.0311
H     13.9606      9.8916     16.3600
C     -4.9727      7.3592      8.2418
C     -8.5165     13.9267      8.5279
C      6.2404      7.4523      2.8708
C     -3.7891      9.7162      5.3695
C     -0.2609      5.9990      3.0733
C     -1.4901      6.3104      3.8208
H      1.2170      3.0892      0.2722
H      4.9696      5.2917     -1.3468
H     -2.8034      3.6487      7.0045
C    -10.8432     13.9704      9.4548
C      0.6584      4.9255      3.6514
C      5.4209      3.7674      2.3473
H     18.0679      8.5427     20.4129
C      7.5475      4.1411      9.0356
H     -2.5709     11.9117      7.7087
H     -6.0677     11.1695      6.4628
C      2.0854      6.6638      8.8201
C     -1.6438      5.8377      6.3366
C      2.6767      0.1216      2.4231
C      1.0613      4.5934      5.7775
C      1.9986      6.4237      7.3681
C      1.3135      4.1266     -0.1574
H     -1.0317      5.1386      1.1915
H      4.5130      1.7268      2.4399
H     -2.5516      8.8156     10.0307
H      4.3416      0.5849      0.3723
H     -4.9378      8.0298      7.1295
H      9.0093      3.0047      8.4324
H      7.4554      1.5237      3.6777
C     -0.5259      9.1629      5.0597
C     -4.0651      7.4433      9.3483
H      4.1093      6.1640     -0.6398
H     -3.8538      8.6152      2.8064
C     -4.6263     11.4784      7.9908
H     -2.6687      3.3604      3.7450
H     -4.1380     10.1744      4.5655
C     -0.1570      7.8690      7.6933
C      0.6402      3.3639      5.3783
O      8.8352      4.9643      3.9089
C     -1.5560      8.2353      5.5731
C     -6.5093     13.8005      7.1204
C      5.3258      1.8710      6.4316
C      3.3571      0.8179      5.9344
H     -5.4609     13.8128      6.8868
H     -8.2997     16.0732      9.3716
H      0.8924     10.0917      6.1461
H     18.1776     11.8985     18.5380
C      1.7694      4.7871      7.0536
H      0.1408      3.9246      1.7724
C      4.0775      5.3876      4.9594
C     -9.3381     15.8621      9.1785
H     20.4199     10.6107     13.4392
H      0.4807      6.2665     -0.2787
C      8.4203      6.9593     10.6205
H    -11.0290     16.4371     10.2327
H     12.1218      6.3231     12.6734
C      4.1783      2.7578      4.4813
C     17.4232      9.5606     18.0106
C     -6.5520     12.4359      9.3699
C     -6.4601      9.2491      7.4862
C      5.5075      4.2268      7.7225
C     -7.1022     13.8297      8.7915
H     -0.9770      5.5756      7.0031
H     -3.4025      9.9802      0.1605
H     -6.8822     12.2278     10.3745
H     10.2530      5.3273      0.8194
C     14.3691      9.8442     14.4183
H     -9.4270     17.5933     10.6927
H     -2.4974      9.2659      3.1901
266

C     19.4752      8.7245     13.5244
N     -3.0035     10.3178      1.8937
C      3.9834      1.6970      7.0188
C      2.4685      2.6547      2.1062
C      7.6392      4.9357      2.0293
H     -3.2811      6.3647      3.0143
C      7.5866      3.3188      1.9209
C      3.4835      3.9260      5.1073
C     16.2473      7.2376     19.3493
C      6.6233      2.1537      3.9251
C     -7.1668      8.4357      9.5821
C     13.4932      8.6954     13.9742
N      0.5075      2.3687      6.2728
C      0.6475      6.2551      0.7766
O     -1.1966      2.3872      1.2224
C      3.1246      3.9980      6.7493
H     13.6333      7.5380     11.4874
C     15.5729      6.4026     17.3862
C     17.0480     10.2296     15.8906
H    -11.6172     14.1707     10.3403
H     -3.1605      2.8841      5.3147
H     17.4909      5.5325     15.3912
C     16.6278      8.8460     16.0099
H     -8.5537      6.9459      9.9425
H     -7.2251      8.6577     10.7522
H    -10.4272     17.3321      9.0276
H     -2.4376      6.3346      6.8849
H     -6.4346     14.7802      8.9911
C      3.0857      2.6346      7.7451
H      6.7366      3.2584      4.4515
O     13.8805     10.6048     15.4634
C     -4.9379     12.1775      9.1443
C      6.0575      5.8427      9.6727
H      3.7022      0.0796      5.7683
H      3.7158      5.2119      8.3250
C      6.4481      2.9688      2.5943
H      5.4962      2.9225      7.8993
H     -8.5166     12.6094      9.9309
H      2.7807      7.6236      9.1871
C     17.5201     10.6923     16.9616
C     -2.9309      8.2606      5.0230
O      2.0979      8.9309      4.9433
C     -1.3954      7.9960      7.2545
C      8.9407      7.8508     11.8836
C     20.4970      7.6269     12.7844
C      6.6426      6.9910     -0.9266
H      6.1514      4.7399      1.9614
H     16.9515      9.6086     14.1666
H      2.3699     -1.4549      5.5364
H     -5.7069      6.6819      7.9967
C      7.9954      2.8039      8.6033
H      1.3197      1.0801      1.4606
C      7.1865      6.1922     10.5906
C      7.9476      5.5719      3.1155
H      8.2180      7.3778      2.4776
C     -1.0891      6.9321      5.1850
H     16.3662      8.6725     21.0891
H     16.5361     10.8108     15.0423
H      2.7369      6.0037      1.0467
C     -3.4694     11.3577      7.3367
C      6.3246      4.7224      8.8764
C     15.8321      7.6755     17.8075
C      4.6942      5.4997     -0.3228
C     17.3244      8.9835     14.8863
H     -3.4698      7.4642      5.5633
H     -8.8405     14.4614     10.7039
H     19.0637     12.8243     17.2268
C     -0.0000      3.6258      8.3050
H     19.4104     10.4011     14.6940
C     12.9040      9.0061     12.7065
C      1.9022      1.6731      7.9610
H     11.5343      6.3092     11.1374
C     -0.6460      6.0909      1.5315
H      5.7403      7.5722     -1.3455
H     18.9567      9.1251     12.8755
C     10.1595      7.2758     12.6880
O     15.2947     10.1107     13.8255
C     -5.8774      8.7298      8.8203
C     16.7620      8.4799     19.9851
C     -9.4261     14.4878      9.7356
C      2.4060      1.0225      4.8848
H     -3.9193     10.7374      2.2405
H     -2.5788     11.3216      1.4319
H     -6.9035     12.4996      7.1164
H      2.1216      5.9783      9.0466
C      4.2399      3.3876      2.9993
H     -2.6899      9.5974      7.5390
C     -2.2887      8.2575      0.8412
C     11.5251      6.8061     11.9380
H     -2.2789     11.3414      5.3810
C      5.2022      2.0992      4.9377
H     17.2199     12.9016     17.1893
C    -10.4475     12.4375      9.1482
C     -8.2347     11.3049      8.2210
C     -1.8287      5.0033      4.0308
C     16.8401      9.7611     19.4814
C      2.7363      4.0250      2.6881
C     -7.6647      6.9821      9.3391
H    -10.7602     11.7514      9.9465
H     15.3812      7.2794     13.6198
H      8.1511      4.5188      4.3965
H      0.5475      4.2934     -0.6595
O      5.5498      6.5649      6.4733
C      0.6821      8.1516      4.4569
C     -2.9141      8.2978      3.5700
C     -2.3084      7.0739      2.9406
H     -5.3213      9.3907      9.3585
H      8.4764      2.9921      2.2703
C     -2.5335      8.6635      7.7981
H      2.6328      4.0733      4.3986
H      3.2825      4.6225      0.7332
H     -0.0963      3.5024      9.3352
C      3.4389      1.5102      2.0753
C     -0.3804      8.3777      2.3242
O      4.0692      4.2784      0.1253
O      7.6579      3.8493     10.5520
C      0.0091      2.6405      1.4032
C      0.3097      3.5175      4.0072
C     -5.9409     10.7118      7.4088
H     16.0682     10.3846     19.2614
H     -1.2315      9.8246      4.2827
H     12.3101      8.8253     10.9893
O     -0.0369      9.9664      5.9907
C     -6.9040     11.5161      8.2331
C      0.7579      6.9444      6.6610
C     14.2757      7.4502     13.9944
H     15.3631      8.2192     15.4756
C      0.4848      7.4780      3.1609
H     -5.0688     13.4524      8.6884
C      2.6116     -0.1431      3.8967
C      0.5705      2.5501      7.5514
C     -2.7400     10.5542      6.0377
C     -2.6308      3.6063      5.9858
C     18.0501     12.1598     17.3864
C    -10.2098     16.7669      9.9338
C      1.2170      2.0210      1.8219
C     -1.5338      7.3841      1.7303
C     -9.0084     12.4237      8.8570
N      2.3701     -1.3287      4.4971
C      3.8565      1.5581      0.5227
O     16.7724      6.1787     15.2132
C      9.4183      6.1887      0.6818
H     18.6445      9.2762     18.4200
C     -2.2726      3.9923      3.0894
C     -2.7725      8.2822      9.1104
H      7.5601      2.3184      7.5649
H      2.0121      0.7927      7.2900
H      8.5349      3.3740     10.4775
H     -4.7036      9.7114      6.2424
C     -3.0823      9.4289      0.8751
H     -7.8217      7.0361      8.4060
H      1.0336      7.5423      9.1675
H     -0.6847      9.3730      2.2550
H     13.5750     10.2726     11.2591
H      2.8414      1.5174      0.1793
H     -1.2114      3.3813      8.0701
C     14.6289      7.4348     15.4685
H      4.3184      2.6055      0.7378
C     13.4992     10.1711     12.2771
H      1.8966     -2.1754      4.2477
C      4.2477      8.3488      4.2628
C      7.4037      6.9458      2.9791
C     20.2309      9.6780     14.1629
C     18.5303      8.1546     14.5994
C      4.1740      6.0394      6.5642
C      1.8111      5.0802      2.5817
C      6.0872      5.8946     -0.1218
C      5.5341      7.5091      4.0187
C      8.1230      6.4572      0.5342
H     13.6567     10.7215     13.1085
C      4.1349      4.8004      7.4013
C      1.7421      5.2932      1.0251
H     -3.4920      8.4786      7.1549
C      6.0429      7.3016      5.2726
H      1.3041      1.1750      5.0017
H     -2.5246      3.9604      2.0796
C      7.1864      5.5715      0.8714
H     -0.7062      3.0787      4.0683
O      7.3743      7.2528      5.5497
H      8.9267      8.9568     11.5409
H     20.5716      9.1705     15.2050
H      0.6635      2.9538      3.1724
H      1.9499      4.1334     -1.1420
H      8.1949      2.0635      9.4695
H      4.6262      5.5132      4.2417
C     12.4792      7.9962     11.6970
H      6.0660      4.2583      6.8658
C     15.4988      6.3142     15.8304
H      0.4115      8.4949      8.4161
C     -1.9864      4.6402      5.4562
C      0.4129      6.8010      5.2600
H     -8.0908      8.9535      9.0264
H      2.8114      1.9715      4.4805
C      1.3133      5.6401      4.9313
H    -10.8118     11.9913      8.2112
H      2.5225     -0.2273      1.6532
H     13.5166      9.8816     16.0911
C     -5.0315      7.4770      8.4002
C     -8.6192     13.8190      8.5775
C      6.1349      7.4752      2.6096
C     -3.8441      9.8314      5.4286
C     -0.1545      6.1543      3.0571
C     -1.4061      6.3601      3.9451
H      1.2348      3.0998      0.3253
H      4.8015      5.2660     -1.5122
H     -3.0571      3.5843      6.7679
C    -10.7711     13.9304      9.3995
C      0.7797      5.1236      3.6500
C      5.2338      3.9566      2.3673
H      0.4256      4.5595      8.5743
C      7.4792      3.9715      9.3700
H     -2.7780     11.3857      8.0953
H     -6.1408     11.1434      6.3833
C      1.9014      7.0085      8.7192
C     -1.6308      5.6950      6.4503
C      2.8283      0.1614      2.5873
C      1.1579      4.5074      6.0228
C      1.8865      6.4366      7.2046
C      1.2820      4.1138     -0.0823
H     -1.4702      5.3261      1.3531
H      4.3749      1.6975      2.5298
H     -2.5014      8.9085      9.8604
H      4.1781      0.6700      0.2284
H     -4.2276      7.7383      7.7177
H      8.9552      3.1008      8.2861
H      7.6511      1.5371      3.7929
C     -0.5844      9.1113      5.0195
C     -3.9186      7.5290      9.4744
H      4.1116      6.4010     -0.4779
H     -4.1138      8.5324      3.5608
C     -4.6055     11.3225      8.0314
H     -2.8503      3.1347      3.5335
H     -3.9221     10.1014      4.4581
C     -0.0072      7.7519      7.4470
C      0.5194      3.3936      5.4561
O      8.9704      4.9193      3.8099
C     -1.5891      8.1900      5.7816
C     -6.6266     13.6544      7.1171
C      5.3756      1.7786      6.3952
C      3.1931      0.6990      6.3847
H     -5.5441     13.8706      7.2029
H     -8.3168     15.9998      9.0383
H      0.8053      9.7766      5.7690
H     17.9231     11.9607     18.4523
C      2.0533      4.8540      6.9677
H      0.2740      3.7534      1.5469
C      3.7210      5.5824      5.0987
C     -9.3178     15.8451      9.2903
H     21.1511     10.0921     13.6217
H      0.6796      6.2493     -0.2152
C      8.2173      7.1061     10.6585
H    -11.1853     16.3689     10.0346
H     11.7479      6.1239     12.7668
C      4.1823      2.7202      4.2922
C     17.4310      9.5678     18.0523
C     -6.5042     12.2785      9.3907
C     -6.3986      9.3237      7.5384
C      5.3840      4.1464      7.8090
C     -7.0637     13.8767      8.6659
H     -0.9515      5.6430      7.0625
H     -3.3437      9.6418     -0.0535
H     -7.2221     11.8881     10.3405
H      9.5440      5.1030      0.5823
C     14.2756      9.9274     14.3614
H     -9.5551     17.4331     10.4177
H     -2.1768      9.0806      3.5274
266

C     19.4646      8.4414     13.8408
N     -2.8005     10.3574      1.7778
C      4.1457      1.8217      7.1979
C      2.4945      2.5458      2.2571
C      7.7561      4.6567      2.3842
H     -2.9661      6.3459      2.4347
C      7.8838      3.2675      2.7212
C      3.4127      3.9260      5.2924
C     16.0817      7.2894     19.4299
C      6.4498      1.7920      3.9203
C     -7.2127      8.5927      9.1123
C     13.6319      8.9481     13.8076
N      0.1746      2.5121      6.2828
C      0.6688      6.2281      0.7783
O     -1.1764      2.0724      1.4545
C      3.1110      4.1201      6.8521
H     13.3184      6.8010     11.5368
C     15.4824      6.2845     17.3823
C     16.9160     10.4199     15.9700
H    -11.2653     13.9612     10.0492
H     -2.8099      2.2058      5.0999
H     17.0940      5.9736     16.3125
C     16.9595      8.9980     15.8972
H     -7.9508      7.6608     10.8153
H     -7.5837      9.3350      9.7816
H    -11.6707     17.4277     10.5432
H     -1.5758      5.5673      7.0000
H     -6.5301     14.3735      9.2966
C      3.1448      2.7743      7.6088
H      7.2439      1.2086      4.6125
O     14.1749     10.4598     15.3546
C     -4.9222     12.4250      8.5598
C      6.4831      6.2153      9.5519
H      3.6807     -0.1673      6.1130
H      3.5867      5.4190      8.4700
C      6.6799      2.8257      3.0465
H      5.6737      3.2777      7.9313
H     -4.2658     12.6482      9.7047
H     -8.3319     12.3504     10.0404
H      2.4220      7.6263      8.9781
C     17.1799     10.8614     17.3717
C     -3.0223      8.3588      4.9164
O      1.9020      8.5490      4.7933
C     -1.8815      8.0959      7.1359
C      8.8895      7.9668     11.8835
C     20.5073      7.6112     12.7681
C      6.4894      6.5511     -0.7073
H      5.5469      3.6622      1.4878
H     17.4562      9.0599     13.8339
H      2.4669     -1.5947      5.5607
C      8.0541      2.7545      8.9930
H      1.2664      1.5183      0.8473
C      7.1493      6.3498     10.8260
C      7.9933      5.5661      3.3427
H      8.1309      6.6306      2.1354
C     -1.3029      6.6956      5.2539
H     16.1840      8.4347     21.1111
H     17.0377     11.2651     15.4375
H      2.6774      5.6376      0.8029
C     -3.5144     11.5922      6.8668
C      6.2552      4.7716      9.3021
C     15.7790      7.5228     17.9321
C      4.8075      5.2859      0.0025
C     17.3876      8.4417     14.7925
H      8.0227      7.6698      3.8941
H     -8.8493     14.4500     10.5243
H     18.7458     12.2395     16.5332
C     -0.5371      3.6863      7.9878
H     19.3930      9.8764     15.0355
C     12.7806      8.9324     12.5191
C      1.6707      2.0784      7.9971
H     10.8870      7.2066     10.6173
C     -0.5453      6.1592      1.7254
H     18.8082      8.7602     12.8322
C     10.1676      7.2633     12.4852
O     15.3116     10.7444     13.4515
C     -5.9218      8.7399      8.3993
C     16.6318      8.4709     20.1770
C     -9.2874     14.5764      9.4684
C      2.6328      1.1536      5.0051
H     -1.7440     10.5878      1.9079
H     -3.5562     10.7724      2.3621
H     -7.3370     13.2014      6.6024
H      1.9139      5.3933      9.1709
C      4.2245      3.3263      3.2184
H     -3.6665      9.1165      7.3594
C     -2.1711      8.2775      0.4704
C     11.3367      6.9765     11.6088
H     -2.0199     11.3179      5.3842
C      5.6366      2.4188      5.0639
H     17.5115     13.0262     17.2542
C    -10.2403     12.4150      8.6364
C     -8.0897     11.4357      8.2261
C     -2.1924      4.8524      3.6535
C     16.7582      9.7194     19.4070
C      2.8669      3.6238      2.8449
C     -7.6252      7.3917      9.7013
H    -10.4508     11.7784      9.5314
H     15.2877      7.7442     13.4325
H      9.4189      4.7695      4.3449
H      0.4659      3.9230     -0.3630
O      5.5762      6.6121      6.5596
C      0.5070      7.9473      4.6725
H     -8.5705     10.5968      7.6732
C     -2.7127      8.3506      3.5034
C     -2.2465      7.0514      2.9181
H     -5.6823      9.4545      9.1581
H      8.4406      3.5232      3.5600
C     -2.8104      8.8781      7.8878
H     12.5371     10.2329     10.7138
H      3.4000      4.3804      1.0755
H     -0.7479      3.8650      8.9714
C      3.2523      1.2497      2.0334
C     -0.0927      8.5515      2.2568
O      4.0700      4.1913      0.2456
O      7.7794      3.9583     10.8011
C     -0.1431      2.8250      1.4966
C      0.1716      3.4914      3.8801
C     -6.1453     10.7448      7.1860
H     -2.5416      9.9939      8.4270
H     16.0374     10.4230     19.9063
H     -0.8179      9.7762      4.3314
H     12.5073      7.5858     10.3753
O      0.0684      9.7908      6.0779
C     -6.8303     11.3613      8.2899
C      0.6406      6.9894      6.9639
C     14.4309      7.6220     14.0925
C      0.4899      7.6575      3.1847
H     -4.5050     13.5535      8.3756
C      2.6059     -0.0583      4.0336
C      0.4557      2.6641      7.5764
C     -2.4604     10.7864      6.0819
C     -2.4744      3.2290      5.4750
C     18.0636     12.0039     17.2800
C    -10.5827     16.7575     10.0506
C      1.2741      2.3636      1.5873
C     -1.2878      7.5294      1.7370
C     -8.8637     12.4698      8.9025
N      2.2768     -1.1668      4.6438
C      3.6656      1.1764      0.6681
O     16.8015      6.3243     15.5285
C      9.5683      6.3105      0.4805
H     18.4892      9.8511     18.4522
C     -2.6506      4.0092      2.6071
C     -2.8667      8.0349      9.0307
H      7.7391      2.6951      7.9360
H      8.3635      3.4927     11.4033
H     -4.3860      9.6310      5.6416
C     -3.0823      9.2456      0.9587
H     -8.6758      7.3063      9.2653
H      1.1163      6.8042      9.1802
H     -0.8414      9.4138      2.5693
H     13.9569      9.6102     11.2326
H      3.6465      2.2545      0.3651
H     -1.3193      3.5811      7.3185
C     14.7391      7.6256     15.5221
H      4.7848      1.0062      0.5905
C     13.0709     10.2623     11.9130
H      1.9989     -2.1539      4.2409
C      4.2736      8.2089      4.5273
C      7.5115      7.0687      2.9865
C     20.2768      9.5289     14.4725
C     18.6432      7.7872     14.7836
C      4.3003      6.0490      6.2669
C      1.8005      4.9220      2.6234
C      6.2634      5.4439      0.2419
C      5.4537      7.2011      4.2926
C      8.2135      6.4574      0.7563
H     13.3031     11.0605     12.3990
C      4.3985      4.9294      7.4549
C      1.7645      5.2188      0.9783
H     -2.1969      6.9706      7.0965
C      6.1497      7.1867      5.5474
H      1.4975      1.3153      4.7765
H     -2.1786      4.1554      1.6186
H      1.4357      3.2411      0.7355
C      7.2995      5.4284      1.1432
H     -0.7689      3.1307      4.2693
O      7.3130      7.3099      5.8048
H      8.8363      8.8887     11.3063
H     20.9299      8.9594     14.9933
H      0.6601      2.4807      3.9833
H      1.8102      4.6785     -1.2319
H      7.7089      1.7970      9.5017
H      4.9013      5.3854      4.3862
C     12.5537      7.6856     11.4107
H      6.4155      4.5516      6.9409
C     15.5283      6.2481     15.8628
H      0.3025      8.0095      8.5415
C     -2.2243      4.3756      5.0812
C      0.2562      6.6318      5.5204
H     -7.8335      8.5866      8.2159
H      3.0280      1.9555      4.6333
C      1.3005      5.6638      4.8271
H    -10.3663     11.6606      7.9869
H      2.8397     -0.7795      1.8653
H     14.7470     10.3970     16.1280
C     -5.0790      7.3344      8.3975
C     -8.4265     13.8199      8.4650
C      6.1949      7.6717      3.2444
C     -3.3381      9.7405      5.1716
C     -0.0721      6.1672      3.1517
C     -1.4522      6.1365      3.6891
H      2.2589      3.5234     -0.0119
H      4.8339      5.6634     -1.0434
H     -1.9149      2.8601      6.3570
C    -10.6006     13.9272      9.1126
H     -1.8376      9.8504      6.3076
C      0.6376      4.8921      3.5045
C      5.3176      3.1751      2.4295
H     -0.2392      4.5785      7.6003
H     -6.5054      8.7226      6.3717
C      7.2895      3.8588      9.6456
H     -3.4298     12.7053      6.7063
H     -6.1457     11.1263      6.0970
C      2.2500      6.5044      8.8847
C     -1.6030      5.3702      5.9089
C      2.5253      0.0353      2.6704
C      1.3336      4.6249      5.7467
C      2.0690      6.4047      7.3094
C      1.4507      4.3777     -0.1171
H     -1.1954      5.2774      1.5017
H      4.0886      0.9851      2.5093
H     -1.8188      7.8703      9.5182
H      3.3140      0.1696      0.0525
H     -4.6422      6.3641      7.9129
H      9.1703      2.8918      8.8743
H      6.0369      0.8740      3.5732
C     -0.5555      8.9973      5.0384
C     -4.0274      7.3533      9.4586
H      4.2920      6.0350      0.4612
H     -3.6626      8.7564      3.3570
C     -4.4766     11.3264      7.7293
H     -2.7865      2.7903      3.0516
H     -3.4360     10.1534      4.0046
C     -0.2166      7.8935      7.5154
C      0.5650      3.3780      5.3948
O      8.3951      5.1917      4.4577
C     -1.7012      8.0374      5.4389
C     -6.5985     13.7204      7.2094
C      5.5709      1.7873      6.3151
C      3.1833      0.8419      6.5025
H     -5.5120     13.5290      6.8781
H     -8.6749     16.4474      9.2312
H      0.5254     10.4645      5.5116
H     18.5685     12.0358     18.2073
C      1.9244      5.0015      6.8588
H     -0.6080      3.9295      1.1835
C      3.8295      5.4521      4.9669
C     -9.6139     16.0352      9.1153
H     20.8967     10.5916     13.9561
H      0.0579      5.8066     -0.2561
C      8.2956      7.0658     10.6645
H    -10.8729     15.9049     10.8996
H     11.6129      5.9264     11.8794
C      4.4224      2.9538      4.5703
C     17.4211      9.6203     18.1135
C     -6.2844     12.2888      9.0670
C     -5.9827      9.2424      7.0676
C      5.7634      4.4546      7.8162
C     -6.9301     13.7027      8.5906
H     -3.8506      9.2224      0.1446
H      9.8677      5.5634      1.2721
C     14.5217     10.2050     14.1856
H     -9.7210     17.3628     10.6264
H     -2.1645      9.1043      3.1245
