262

C     19.9826      8.4785     13.2574
N     -3.0236     10.4220      1.7660
C      3.7745      1.3896      7.0132
C      2.1266      2.6895      2.0027
C     -5.2345     17.2291      1.8904
H     -3.1483      6.6061      2.4815
C     -5.3745     15.7020      2.5107
C      3.1246      3.9243      5.2549
C     16.2161      7.3186     19.3951
C     -6.5557     14.5684      4.2373
C     -6.7272      8.5677      8.8361
C     13.7881      8.8291     13.7448
N      0.1543      2.9168      6.3861
C      0.8575      6.4102      0.6883
O     -1.4282      2.9214      1.7238
C      3.1821      3.9607      6.8294
H     13.3198      7.7978     10.8782
C     15.6193      6.3827     17.5465
C     17.0374     10.2507     15.7218
H     -1.6055      2.3510      6.2708
H     17.4902      5.4339     14.8678
C     17.2319      8.8968     15.8831
H     -7.6987      7.5312     10.6407
H      7.4010      2.2579      8.3645
H    -10.8993     16.9565      9.6747
H     -1.5143      5.9283      7.0918
H     -6.9301     14.0911      9.5274
C      3.1095      2.6639      7.6007
H     -5.5514     14.7557      4.4542
O     14.1192     10.6715     15.3890
C     -5.6108     11.7895      9.2437
C      6.6420      6.1836      9.5006
H      2.9021     -0.2317      6.0886
H      3.7703      5.3420      8.1916
C     -6.5120     15.4520      3.1974
H      5.9684      3.6113      7.3248
H     -9.1562     11.4891      9.6218
H      1.7569      7.4759      9.5110
C     17.3720     10.7858     17.0079
C     -2.8676      8.6046      5.0610
O      2.0754      8.6230      4.8529
C     -1.1469      8.5675      7.1297
C      9.0457      7.8564     11.6544
C     20.6954      7.3161     12.6183
C     -6.1624     19.4124     -1.0669
H     -7.5906     16.5742      1.5783
H     17.5406      9.1112     13.9857
H      2.0941     -1.7555      5.2034
C      7.7260      3.1019      8.9113
C      7.6084      6.1329     10.6013
C     -4.9291     18.2145      2.8604
H     -4.7931     20.4282      2.0336
C     -1.1275      6.9520      5.2412
H     16.9618      8.4616     21.0850
H     16.7247     10.4675     14.7597
H      2.7666      5.6820      0.4482
C     -3.6201     11.1880      7.7979
C      5.8551      4.8169      9.2378
C     15.8778      7.5811     18.1939
C     -8.1285     18.3864     -0.0890
C     17.7197      8.4369     14.7042
H     -3.2773      7.6645      5.5035
H     -4.7425     19.9632      3.7258
H     -9.7213     14.4466     10.7247
H     -8.1678     10.2207      8.9370
H     18.9051     12.1185     17.3612
C     -0.3956      3.2961      8.5483
H     19.3402      9.4747     14.6651
C     12.9647      8.9512     12.2521
C      1.9191      2.0691      7.8538
H     10.8305      6.8094     10.5659
C     -0.6724      6.3329      1.4758
H     -7.0671     19.8253     -1.2610
H     -3.3039      2.5988      5.5169
H     19.5650      8.8226     12.3106
C     10.1778      7.3819     12.6111
O     15.3931     10.5744     13.4701
C     -5.8399      8.4871      7.8478
C     17.0406      8.4833     20.0363
C     -9.3488     14.3471      9.5471
C      2.4392      1.0896      4.5048
H     -2.0974     10.6438      2.0892
H     -3.7144     10.8876      1.2059
H     -6.7156     13.0051      6.4643
H      3.3196      6.6379      8.7750
C      4.1454      3.5368      3.3531
C     -2.3116      8.2216      0.6817
C     11.2184      6.9050     11.5456
C     -7.7081     14.8819      5.1065
H     17.3821     12.9718     16.4328
C    -10.9430     12.4230      8.5579
C     -8.7916     11.0884      7.2601
C     -2.0492      4.6301      4.1274
C     16.7811      9.7823     19.3715
C      2.5710      3.7346      2.8426
C     -7.2610      7.3218      9.6045
H    -11.2574     11.7656      9.3083
H     15.4599      7.5227     13.4119
H      0.6311      3.3640      0.5763
O     -7.1509     19.5630      6.2615
C      0.8409      8.2047      4.5926
C     -2.9891      8.4760      3.5156
C     -2.4674      7.3471      2.8113
H     -4.7480     10.2352      9.0761
H     -4.3527     15.5978      2.7850
C     -2.4227      8.8390      7.7622
H     -8.6476     16.6823      1.0759
H     -0.1305      3.8431      9.3801
C      3.0750      1.4521      1.9303
C     -0.2736      8.6245      2.0360
O     -8.6725     17.1887     -0.0125
O      7.4214      4.0435     10.9843
C     -0.2421      3.1678      1.8455
C      0.4308      4.0135      4.2525
C     -6.1088     10.8182      7.2348
H     15.8544      9.5555     19.1358
H     -0.8734      9.3050      3.9820
H     12.0276      8.2233     10.2107
O      0.4039     10.1708      5.5583
C     -7.5733     10.9753      8.2117
C      0.8636      7.2292      6.9591
C     14.4866      7.5738     14.0707
H     15.7480      8.4110     15.8026
C      0.5813      7.7866      3.1390
H     -4.9412     12.7891      9.1568
C      2.2928     -0.2614      3.6554
C      0.4984      2.7067      7.5861
C     -2.9942     10.6580      6.6424
C     -2.4067      3.1094      6.0709
C     17.6729     12.2411     17.2018
C     -9.5546     16.9519      9.9689
C      0.7601      2.2634      1.9592
C     -1.4629      7.6805      1.6989
C     -9.4460     12.0094      8.6627
N      2.4409     -1.3413      4.3904
C      3.5484      1.3765      0.4560
O     16.8221      6.1498     15.3132
C     -3.1700     18.9533      0.4618
H     -6.8561      9.2583      6.0060
C     -2.8895      4.3832      3.0309
C     -2.7429      8.6764      9.0934
H      8.1611      3.7693      8.2331
H     -5.0437      9.0457      6.0480
C     -3.2588      9.1404      1.1265
H     -8.1162      6.7928      9.0902
H      2.0985      5.8083      9.0832
H     -0.5815      9.7141      2.1925
H     13.9214      9.9632     10.5340
H      4.0240      0.5674      0.3108
H     -1.0311      2.1869      8.6135
C     14.9247      7.5899     15.4837
H      2.4799      1.5617     -0.1702
C     14.0479      9.6155     11.6872
H      8.3677      5.0846     10.6907
H      2.1099     -2.0925      3.7000
C     -8.3671     21.3450      4.3287
C     -5.1326     19.7487      2.7865
C     20.3218      9.6518     14.2172
C     18.9627      7.8856     14.3930
C      4.1974      6.1012      6.2546
C      1.7840      5.0209      2.4705
C     -6.6687     18.4525     -0.2645
C     -7.3935     20.0325      4.0446
C     -4.5067     19.1646      0.4412
H     14.7339     10.3536     11.8765
C      4.2192      5.0624      7.3165
C      1.7570      5.3045      1.0693
H     -3.1095      8.2361      7.2092
C     -6.5701     19.8178      5.1704
H     -2.4104      4.3560      2.0370
C     -5.5888     18.0799      0.6223
O     -5.2064     20.1921      5.3263
H      8.9490      8.8066     11.4909
H     20.6750     10.1872     15.0755
H      0.6301      2.8643      3.9796
H      1.3280      4.1184     -0.7765
H      4.3585      5.5170      4.3543
C     12.4464      7.9986     11.3223
H      6.0951      5.1177      6.7941
C     15.5667      6.2976     15.9077
C     -1.7798      4.4291      5.4605
C      0.3632      7.0493      5.4954
H     -7.0614      9.5418      8.5112
H      2.6178      2.0981      4.1448
C      1.1594      5.9269      4.8511
H    -11.2782     12.2477      7.4575
H      2.1308     -0.5397      1.3462
H     13.4261     10.4888     15.8705
H     -1.7806      7.8246      9.3971
C     -4.8342      7.3002      7.8832
C     -8.7497     13.4780      8.5400
C     -6.6151     20.2112      2.9017
C     -3.2422     10.0187      5.3512
C     -0.1175      6.4263      2.8486
C     -1.3956      6.3342      3.7533
H     -2.5722     11.4066      8.5068
H      2.2621      3.2294      0.0223
H     -8.4789     18.8155     -1.0341
H     -2.7795      3.1790      7.1015
C    -11.0677     14.1495      9.1054
H     -2.0172     11.1245      6.6504
C      0.6467      5.2484      3.6221
C     -7.7422     15.9268      2.5657
H      1.4228      4.6116      7.9241
H     18.0710      8.1212     19.8594
C      6.7534      3.8404      9.9387
H     -6.2705     11.7031      6.5250
C      2.1617      6.7580      8.7766
C     -1.2939      5.5342      6.0440
C      2.0549     -0.0458      2.3149
C      0.8983      5.1378      6.1348
C      2.1969      6.5194      7.3017
C      1.5420      3.9958      0.2670
H     -1.2428      5.3505      1.5600
H      3.8397      1.8307      2.7070
H     -3.3897      9.2740      9.6688
H      4.2988      1.8636      0.5565
H     -4.3367      7.0528      7.0991
H      8.5700      3.0077      9.7016
H     -2.8819     10.9058      4.6466
H     -6.7239     13.5778      4.3502
C     -0.2680      9.1428      4.8302
C     -4.2056      7.7912      9.0890
H     -8.4353     19.1905      0.5671
H     -4.1019      8.3322      3.6136
C     -5.0480     10.9592      8.3719
H     -3.3579      3.3659      3.2031
H     -4.2010     10.3402      5.1214
C      0.1296      8.0609      7.6794
C      0.5145      4.0149      5.6315
O     -4.7444     18.0269      4.2420
C     -1.2948      8.4032      5.6843
C     -6.7989     13.8298      7.2733
C     -7.8963     14.4318      6.4450
C      2.9750      0.8168      6.1236
H     -5.7928     13.8886      6.9013
H     -8.1177     15.9839      8.6270
H     -5.3852     11.6669     10.3420
H     -0.2054     10.2119      6.2769
H     17.1698     12.9338     17.9771
H      0.4218      8.1070      8.7106
C      1.9211      5.0689      7.1025
H     -0.1929      4.2660      1.6356
C      3.6270      5.4010      5.1363
C     -9.1732     15.8511      8.9102
H     20.1071     10.6166     13.6319
H      0.7446      6.0721     -0.2738
C      8.4934      7.2936     10.3131
H     -9.9127     16.2771     10.9064
H     11.6341      5.9047     11.9501
C      4.2891      3.0386      4.7715
C     17.5230      9.8261     17.9971
C     -7.0386     12.1071      9.1113
C     -5.8889      9.4729      6.6957
C      5.5825      4.6099      7.7842
C     -7.2944     13.4577      8.6810
H     -0.8895      3.9679      7.8328
H     -3.9933      9.3106      0.4011
H     -2.6879     18.0808      1.0027
C     14.4379     10.0622     14.0788
H     -8.4827     17.2840     10.1272
H     -2.6977      9.6248      3.4565
