273

C     19.5787      9.2014     13.8402
C      4.4346      1.5604      6.9794
C      2.6070      3.1025      1.2328
C      7.2352      5.2033      2.6511
H     -3.8243      3.9124      1.9184
C      7.6608      3.7729      2.6406
C      3.1032      4.1191      5.1645
C      6.5572      9.6869     11.1167
C     15.7260      7.0103     19.5148
C      6.3450      2.1273      4.0044
C      5.9455      8.4889     10.2080
C     13.7831      8.6023     13.6661
N     -0.1474      2.9832      6.3119
C     13.6270     -7.3784      0.2108
O     -1.6212      1.6212      2.6517
C      3.2527      3.9576      6.6290
H     13.2530      6.8665     12.0426
C     15.3786      6.3910     17.1931
C     16.2305     10.5721     16.9823
H      1.7751      0.2107      9.3153
H     -2.5734      3.0477      5.8470
H      6.2106      5.1786      3.0751
H      6.9422     11.1179      9.4481
C     16.8724      9.4009     16.5240
H      7.5882      9.6574     11.4928
H      8.3310      3.4749      3.5103
H     12.3567      7.4532     10.4447
H     -0.5859      4.8616      6.3749
C      3.1544      2.6875      7.3960
H      9.2310     -2.6686      0.9402
H      7.2681      2.1463      4.6540
O     14.9575     10.4167     14.7974
C      8.9181      0.1169      8.4366
C      6.4739      6.3500      9.7458
H     14.6899     -5.5289      8.6390
C      6.4497      2.8472      2.7465
H      6.3817      4.8749      7.6616
H      5.7985      9.8330     11.9349
H      5.4665     -2.1333      7.1142
H      4.3442      8.4947     11.5417
C     17.4684     10.6874     17.9984
C      9.8845     -4.4751      4.8000
O     14.4550     -4.3676      4.7498
C     10.9500     -5.5780      6.8993
C      8.6165      8.2824     12.0376
C     20.5207      8.1361     13.1595
C      6.5199      7.3211     -0.3953
H      4.9729      4.2950      1.7073
H     18.0281     10.1782     14.9383
H      1.4835     -0.5890      3.3623
H      8.1408     -7.6140     10.0933
H     15.1221     10.7035     17.4133
C      6.5267      7.3026     10.8926
C      8.2608      5.9333      3.5350
H     20.8277     10.8582     13.4280
C     -1.2225      6.4453      4.9851
H     15.0900      8.4297     20.9318
H      4.1280      0.3457      2.5574
H      5.5170     11.0600      9.6997
H      4.4753      6.2040      1.1081
C     10.4644     -1.8443      7.3613
C      5.3669      5.6463      9.2601
C     15.6262      7.6000     18.0647
C      4.8485      5.9021      0.1681
C     17.7863      9.4045     15.4635
H      9.0569     -4.8288      5.0739
H      8.8816      7.7946      3.0347
H      3.9990      1.4601     10.3261
H      7.0486     -0.1650      9.6174
H     18.9265     12.1527     17.7443
C      0.0843      2.7106      8.6472
C     13.3327      8.5049     12.0015
C      1.7372      1.8031      7.3353
C     12.4329     -6.6995      1.1513
H      5.7925      7.9523     -0.1866
H     -3.5640      3.5410      4.5417
H      5.8531      4.4622      6.1288
H      6.1995     11.9556     10.8817
C      9.8768      7.7222     12.6778
O     14.5490     10.7245     12.4990
C      6.0918      8.6851      8.7717
C     15.9125      8.3373     20.4553
C      3.8056      1.2357      9.3183
C      3.4756      1.5685      4.8561
H     10.7509     -2.7710      1.6954
H      4.3972      6.6208     -0.4084
C      3.9046      3.2699      3.2160
H      8.9500     -2.3888      5.0585
C     10.6329     -4.1735      0.5480
C     11.0457      7.5985     11.5559
C      5.5967      2.8361      5.0300
H     17.7232     11.9296     16.3630
H      7.9614      3.2297      1.8340
H      9.1749      1.0941      7.9595
C      3.2967     -0.6654      8.3624
C      5.6602     -1.1791      7.2491
C     -1.9379      4.8779      3.4098
C     16.1875      9.5836     19.6637
C      2.7453      3.5634      2.4810
C      4.4208      8.6773     10.4880
H      2.7114     -1.3121      7.8664
H     15.8118      8.3096     13.9316
H     -2.2109      4.6251      1.1132
H     12.9512      9.7547     11.7828
H     16.2159     -8.5285     -0.5907
O      5.1858      7.1779      6.3871
C     13.3777     -5.0606      4.4787
H     16.5408     10.5131     20.0277
C     10.4269     -4.5927      3.3683
C     10.8590     -5.5582      2.6437
H      5.3871      9.4020      8.4345
C      9.7373     -5.8472      7.5134
H      1.2104      2.1616      5.0354
H     15.7046      8.1037     11.9198
H      6.7087      2.0882      1.8532
H      1.0594      3.3812      8.8239
C      3.3561      1.7224      1.0055
C     12.8082     -4.3141      1.8701
C     -1.8349      2.7513      1.6775
C     -0.2359      3.6277      3.8064
C      7.9091     -1.6701      7.1231
H      2.2987     -0.2134      5.1279
H      8.8522     -5.7344      6.8929
H     15.4330     10.0336     19.2459
H     15.8118      6.9031     13.2902
O     12.6817     -3.5843      6.1082
C      6.9125     -0.9626      7.6177
C     13.2348     -6.1538      6.7809
C     14.7940      7.6058     13.7868
H     15.2548      8.4197     15.6533
C     13.4112     -5.4208      2.8938
H      9.4159      0.4314      9.5419
C      2.7514      1.0369      3.6353
C      0.4595      2.5826      7.3271
C     10.1968     -3.1744      6.8196
C     -2.4559      3.1441      4.6377
C     18.1399     11.6356     17.2729
C      3.3772      3.8241      9.8067
C     -0.6973      2.9883      0.8950
C     11.6574     -5.0970      1.2580
C      4.6146     -0.4960      7.8493
N      1.7707      0.1943      4.1623
H      3.4999      0.1966     -0.1684
C      2.7952      1.1093     -0.1739
O     17.2697      6.2902     15.3884
C      9.3999      6.7458      0.8342
H     18.2805      8.9848     19.1148
H      1.7532      1.5092      8.2965
C     -2.5019      4.1663      2.1307
C      9.8985     -5.7643      8.9351
H      1.6081      1.0056      6.6328
H      7.2276      5.0775      0.4080
H      7.5365      9.8070      7.7916
C      9.9977     -3.1719      1.1030
H      3.7967      8.0854     10.0030
H     13.8885     -7.0875      9.1125
H     -2.3601      5.0721      6.2893
H     11.8496     -3.3042      4.3830
H     14.8041      7.4382     10.6711
H      3.1313      1.4838     -1.1906
H      0.3880      1.8140      9.2171
C     14.7539      7.5210     15.2450
H      4.1588      5.8985      9.5291
C     14.7274      8.3563     11.3696
C      6.3793     11.0147     10.2574
H      2.6092      3.6511     10.8889
H     16.4051     11.6027     16.4978
C     17.0279      8.2800     17.4933
C      8.0575      7.2576      2.6661
C     20.2320     10.4792     14.2411
C     18.8393      8.4715     14.9669
C      4.0368      6.2398      6.3002
C      2.0620      4.9121      2.3623
C      6.1684      6.2752      0.3205
C      5.6311      7.5854      4.0907
C      8.1054      7.0768      1.1740
C      4.0364      5.1448      7.3202
C     14.6882     -7.8240      0.8256
H      7.6740      6.8407      6.1118
C      6.1673      7.6912      5.2912
H      9.6162      5.7708      0.3975
C      7.0027      5.8267      1.2244
H     -0.1967      2.8570      3.1962
H     10.9259     -6.0480      9.3049
O      7.3123      7.7897      6.0592
H      8.8825      9.2130     12.0483
H      1.9619      2.8861      3.3768
H     12.6516     -3.2870      2.1844
H      4.8984      4.7095     -0.0009
H      4.2266      5.6062      4.0483
C     12.5042      7.4139     11.5656
H      8.3678     -7.5283      8.4688
C     15.7173      6.3018     15.7995
H     15.4542     -7.2922      9.0448
C     -1.4046      4.1387      4.5543
C      0.1902      6.5352      5.3772
H      4.2761      9.6852     10.3032
H      2.9884      0.0425      6.0355
C      1.1285      5.6303      4.5403
H     12.2979     -6.0845      8.3873
C      7.8450     -6.8879      9.3398
C      4.8800      0.9550      8.2181
O      5.9718      4.1603      5.1508
C      6.5302      7.8125      3.0266
C      9.9447     -3.1350      5.3462
C     12.7998     -6.6773      2.5243
C     -1.5166      6.2424      3.4801
H     16.7750      8.0652     21.1341
H     15.1595      9.1849     10.9492
H     -2.3856      2.1257      4.2833
C      3.0129      0.1893      9.2809
C      0.5471      5.0356      3.1797
C      5.0479      3.4689      2.6484
H     14.1451     -8.7785      7.4665
H      8.0222      8.0717      8.1563
H     13.0565     -7.7395     -0.7747
H     11.1440     -1.3306      6.6924
H      7.7676     -2.2055      6.1947
C     14.6966     -6.6006      8.5950
C     -1.4472      5.0961      5.6084
C      3.2655      0.7667      2.2086
C      1.5764      4.3251      5.3035
C     14.4888     -6.8093      7.2074
C     15.4823     -9.0367      0.1281
H     11.5292     -7.2215      0.7356
H      4.3354      2.2007      1.0998
H     10.7929     -2.0006      8.2248
H      1.5601      0.9046     -0.3272
H     -0.6612      1.1607      2.4592
H      9.3274     -3.5007      7.3929
H      5.6776      1.2413      4.3377
C     12.2458     -4.2399      4.9144
C      8.6837     -5.9086      9.8296
H     17.2215      7.1866     15.7524
H     19.1778     11.2034     13.9820
C      9.2218     -1.1351      7.4913
H      9.8258      6.8809      1.9333
H     10.5909     -2.2491      4.7368
H      6.2730      1.8603      9.5655
C     12.1721     -5.8742      7.4287
C      0.4724      3.0604      5.0601
O      9.3015      5.7358      4.1620
C     11.0626     -5.1643      5.5833
C      6.5509      2.4103      7.4285
C      5.6869      2.2358      6.4430
C      3.6571      0.8579      5.9610
H      5.8597      7.6761      8.2747
H      5.2332      3.6959      7.8900
H      8.1974      9.4209      9.0638
H     10.9624     -3.6939      7.1514
C     14.7106     -8.2268      6.7408
H     -2.3086      2.0440      0.9446
C      3.5890      5.4404      4.8300
C      3.5699      2.7478      9.0228
H     20.7512     10.3744     15.0904
C      8.1447      7.7555     10.7927
H      3.2980      5.5455      8.0661
H     10.4628      6.9711     11.0210
H      7.5485      3.0602      7.4671
C      4.0590      2.8354      4.7058
C     17.3548      9.3495     18.7864
C      7.3807      0.1519      8.6141
C      7.5311      8.9089      8.4825
C      5.3012      4.6609      8.1681
C      6.4836      1.4670      8.5252
H     -0.9366      3.1577      8.7084
H     10.4674     -4.6538      8.6080
H      0.1450      3.3998      1.5234
H     18.7220      9.4433     13.3689
H     -1.0861      3.9256      0.1354
C     14.5145      9.9643     13.6332
H      3.0750      4.8196      9.6431
H     10.8412     -3.7042      3.1912
