267

C     19.9326      9.1217     13.9014
N     -2.2617     10.7521      1.2137
C      3.9326      1.7650      7.0033
C      1.8575      2.7863      1.8107
C      7.2128      5.0988      2.0257
H     -4.1074      4.9759      2.0989
C      7.1511      3.4656      2.3913
C      3.4358      3.8911      5.4965
C     16.2672      7.0035     19.6028
C      6.0046      1.7277      3.7910
C      5.4084     -4.5214     10.1782
C     13.8840      8.5727     13.8184
N     -0.4391      2.8701      6.1736
C      0.6015      5.8634      0.6124
O     -1.6309      2.5688      1.6484
C      3.1114      4.1243      6.9466
C     15.8045      6.1441     17.3685
C     16.7117     10.3039     16.3322
H      0.9568      0.5623      9.0499
H     -3.7238      3.7137      4.6681
H     17.3214      7.1132     15.3520
C     16.9528      8.8557     16.0463
H      4.2351     -5.6993     11.2540
H      5.6315     -3.5419     10.4992
H      7.7608      2.6932      2.0368
H     -0.3277      5.2298      6.5119
H      8.4789      3.0061     10.3097
C      2.5021      2.9573      7.6927
H      6.7913      1.2670      3.4697
O     13.9566     10.7819     14.6649
C      8.0757     -0.1690      8.5146
H      6.0463      2.2161     10.6130
C      6.9662      6.2530      9.7539
H      2.0197      0.2635      6.3209
H      3.0980      7.5553      8.4518
C      5.9807      2.8119      2.8440
H      6.6182      4.4816      7.6393
H      4.7782     -2.2541      9.1583
H      5.1169     -6.7186      9.5083
C     17.5413     10.9071     17.4410
C     -2.8656      8.1844      5.1137
O      2.2483      8.5571      4.9826
C     -1.4804      7.8281      7.1351
C      8.7263      8.3787     12.0692
C     20.6732      7.9465     13.0853
C      6.5589      7.2685     -0.8314
H      5.1001      4.6470      2.6042
H     17.0974      9.4144     14.1741
H      1.8603     -1.3097      3.3042
H     -4.8583      6.0392      7.9206
H     13.7162     11.6723     14.1095
C      7.8467      3.4788      9.6822
C      7.3262      6.7739     11.0312
C      7.5093      5.7040      3.1815
H      7.5229      7.5915      2.1370
C     -0.9104      6.6952      5.0764
H      1.6056      0.0517      1.8403
H     15.1992      6.8531     13.6133
C      9.8570     -1.3187      7.3403
C      6.0266      4.9691      9.5453
O      5.6016      3.0535     10.6767
C     16.1243      7.5509     18.1253
C      4.4634      5.7901      0.0212
C     17.6527      8.7975     14.8812
H     -3.2910      7.1901      5.4462
H      8.5435      7.2107      3.9632
H      3.1807      0.9736     10.5370
H      6.0774     -0.6524      9.4482
H     17.7888     12.8521     16.8139
C     -0.1281      3.8128      8.5626
C     13.3302      8.5833     12.4633
C      1.3407      2.0080      7.5553
H     -1.6971      7.5143      9.4977
C     -0.5379      6.3407      1.5264
H      5.5990      7.5735     -1.5138
H     -1.9543      2.7152      4.3368
C     10.0402      7.6543     12.6924
O     15.6060     10.2332     13.2363
C      6.3783     -4.5763      9.0528
C     16.9742      8.2826     20.1192
C      2.9422      1.3847      9.4256
C      2.7282      1.5775      4.8620
H     -2.1724     11.5989      1.8501
H     -1.9670     10.0099     -0.6982
H      5.9140     -0.8947      6.5744
H      3.4103      3.2457     11.1344
C      3.8060      3.1687      3.3415
C     -2.0964      8.4670      0.8306
C     11.0332      7.2211     11.5124
H     10.5128     -3.1002      7.3699
C      5.1799      2.2439      4.8894
H      4.0013     -0.0845      5.8372
H      8.7154      0.7948      8.6453
C      2.6087     -0.5925      8.2577
C      4.6503     -1.8850      8.2381
C     -2.5761      5.4875      3.9534
C     16.7933      9.4282     19.3193
C      2.3299      3.6043      2.9334
C      4.5884     -5.7416     10.2054
H     15.7738      8.5410     13.4970
H      2.6671      5.2497     -0.5399
O      5.6238      6.5260      6.4082
C      0.7735      8.0667      4.6176
H      3.9723     -2.3100      7.6663
C     -2.8178      8.5800      3.6991
C     -2.0214      7.6047      2.8898
H      6.4701     -4.8760      7.7271
C     -2.7889      8.0611      7.6928
H      2.3275      3.7256      5.2844
H     13.6494      8.5929     10.3642
H     -1.0252      3.7159      9.2584
C      2.8193      1.7485      1.4065
C      0.0632      8.6508      2.1078
O      7.3268      4.3034     11.7493
C     -0.6935      3.2830      1.5928
C     -0.2077      4.1066      4.1023
C      7.3858     -2.4828      7.5840
H     -3.7892      7.9772      7.3905
H     15.6668      9.7422     18.9301
H      0.4118      6.1505     -0.3516
O      0.1642      9.5381      6.2976
C      6.0537     -1.4064      7.5332
C      0.9276      7.1057      6.6875
C     14.9964      7.7787     13.8691
H     15.8895      7.9982     15.8116
C      0.7230      7.5101      3.1676
H      8.6247     -0.6019      9.4141
C      2.3254      0.7472      3.7348
C      0.0370      2.5282      7.7439
C     10.5734     -2.3422      6.5711
C     -2.8098      3.4165      5.0650
C     17.6504     12.2951     17.7328
C      3.2544      3.7632     10.2498
C      0.7300      2.5668      1.2629
C     -1.1384      7.8786      1.6682
C      3.9733     -0.4342      8.2911
N      2.1341     -0.5499      3.9517
C      3.3639      1.3900     -0.0202
O     16.8296      6.1278     15.1419
C      9.5510      6.4037      0.5288
H     18.9742      9.8577     18.7312
H     -0.9596      1.8085      8.1137
C     -2.9352      4.7298      2.6704
C     -2.7522      7.5510      9.0132
H      8.4128      4.2550      8.9329
H      1.4397      1.5848      6.6736
H      7.3401      5.5503     -0.3082
H      8.3371     -2.6686      9.3033
C     -2.0360      9.7556      0.3839
H      4.9096      5.0381      9.9914
H      1.3967      6.8666      9.2089
H     -0.6260      9.7333      4.1625
H     14.8732      9.4163     12.0340
H      3.4150      0.1655     -0.5943
H     -0.3787      4.8639      8.0977
C     14.9360      7.5425     15.3719
H      3.1110      2.1758     -0.5903
H     -3.1665     10.5207      1.7411
C     13.9553      9.0361     11.3611
H     15.7284     10.4570     16.6807
C      4.4871      8.2216      4.4085
C      7.7691      7.1321      3.1089
C     21.2212      9.6934     14.5099
C     19.0295      8.5353     14.9947
C      4.4210      5.9063      6.3502
C      1.8560      4.9330      2.5877
C      5.8664      6.1588      0.1443
C      5.5398      7.1888      4.1950
C      8.3389      6.7539      0.7595
C      4.3868      5.1561      7.6010
C      1.4059      5.0493      1.1143
H     -2.0114      5.6901      6.5476
C      6.2449      6.9276      5.2294
H     10.0372      5.6414      0.2193
H      0.5515      1.3973      1.0653
C      6.9857      5.7895      0.9654
H     -0.8756      3.5722      3.4320
O      7.4532      7.0811      5.3995
H      9.1957      9.4757     11.9581
H     20.9769     10.7388     14.3670
H      2.0745      3.4641      3.7863
H     -0.1226      9.5114      2.6943
H      3.0798      3.8387      0.4045
H      5.0570      4.9342      4.2520
C     12.4084      7.4480     11.6385
C     15.6608      6.1288     15.7916
H      2.6431      6.0580      9.1268
C     -2.0691      4.5656      4.9697
C      0.5717      6.7964      5.1697
H     17.7965      7.9120     20.5620
H      1.8636      2.0171      5.3050
C      1.4604      5.7089      4.7363
H      2.3594     -1.5944      8.6527
H      1.2782      1.4331      2.8090
H     16.4711     10.7775     15.3937
C     -4.7836      6.1766      9.0276
C      4.4499      0.9376      8.2301
C      6.3767      7.7005      3.1440
C     -3.6118      9.3406      5.8276
C     -0.0918      6.2914      2.9028
C     -1.4282      6.3842      3.7060
H      3.9927      6.5742     -0.3746
H     -2.5135      3.1207      5.9787
C      1.8722      0.6020      8.6425
C      0.6849      5.2215      3.4203
C      4.8487      3.6053      2.6011
H      1.2584      4.9844      7.9190
H      8.2332     -4.4587      9.0451
C      6.6601      3.9478     10.2535
H     10.4952     -0.3122      7.3170
H      7.3176     -3.1711      6.6335
C      2.2516      6.7300      8.5997
C     -1.3041      5.6166      5.8706
C      1.9318      0.9298      2.2916
C      1.0933      4.7032      5.7255
C      1.9794      6.5040      7.1867
C      2.2856      4.2832      0.0691
H     -1.2234      5.6302      1.0939
H      3.8254      2.1281      2.0805
H      4.3076      1.5476      0.2648
H     -3.7256      5.7220      9.3462
H      7.5512      2.7738      8.8351
H     11.7502     -1.9548      6.0425
C     -0.3027      9.0901      5.0624
C     -3.9715      7.2398      9.6457
H      4.0052      5.0592      0.7698
H     21.0898      9.7069     15.6615
C      8.4034     -1.4005      7.5955
H     -2.2819      4.7498      1.6488
H     -3.8221     10.0540      5.0283
H      6.0443      1.4341      9.2524
C     -0.3333      7.3946      7.7126
C      0.1824      3.7419      5.3857
O      7.6161      5.1767      4.2913
C     -1.3607      8.0075      5.6127
C      6.2779      1.7209      7.1033
C      5.0850      1.7361      6.0885
C      3.2286      0.6747      6.1249
H      7.8242      6.1506      5.7678
H      6.9409      2.8039      7.4720
H      5.4329      3.4467      8.3806
H      0.1695     10.4814      6.4065
H     18.7122     12.5625     18.1662
H      1.4630      8.0957      6.4421
C      1.8652      5.0022      7.1176
H     -0.7345      4.3578      1.5191
C      4.0306      5.2240      4.9251
C      2.8246      2.9341      9.2869
H     21.8530      9.4637     13.8664
C      8.4629      7.5818     10.8765
H      4.1270      5.8905      8.3780
H     11.1463      6.1342     11.0592
H      7.0377      0.8286      6.8180
C      3.8615      2.7978      4.6619
C     17.8904      9.9517     18.5538
C      6.6306     -0.3358      8.5171
C      7.3844     -3.3997      8.9671
C      5.7479      4.3905      8.1941
C      5.8464      1.0255      8.2855
H      0.9246      3.8041      8.8465
H      1.7823      4.0345     -0.8354
H     19.4013     10.1329     13.2322
H      8.2064      4.1735     11.4691
H     -1.0890      2.1224      5.8836
C     14.6399      9.9032     13.9641
H      3.5723      4.6615     10.0678
H     -3.6501      8.8695      3.1172
267

C     19.9157      8.9860     14.0035
N     -2.3733     10.8736      1.5300
C      4.0096      1.6302      7.0102
C      1.6150      2.5764      1.8889
C      7.0170      5.0254      2.0317
H     -3.2721      5.4657      2.2380
C      7.2111      3.4802      2.2909
C      3.4796      4.0291      5.5503
C     16.1387      7.1706     19.5799
C      5.8520      1.6459      3.5906
C      5.3495     -4.6034      9.8127
C     13.8574      8.6001     13.6606
N     -0.4831      2.7290      6.2517
C      0.4151      5.6260      0.7521
O     -1.8109      2.4637      1.6879
C      3.1023      4.2074      6.9980
C     15.7220      6.1666     17.4225
C     16.6838     10.3654     16.4065
H      1.0521      0.2587      8.8424
H     -3.5372      3.8014      4.5696
H     17.3013      6.8702     15.2190
C     17.1369      8.9453     16.1129
H      3.9352     -5.6629     10.9582
H      5.5515     -3.4431     10.3424
H      8.1506      3.1032      3.0786
H     12.5318      7.8341     10.2539
H     -0.9171      5.1811      6.7824
H      8.5459      3.3246     10.5474
C      2.6619      2.9730      7.7758
O     14.0379     10.8499     14.8953
C      7.9990     -0.3262      8.6808
H      5.6565      2.0218     10.3070
C      6.9174      6.1844      9.8808
H      2.9866     -0.0881      6.3155
H      3.1590      7.4852      8.9193
C      6.1101      2.8899      2.6582
H      6.8629      4.6837      7.9722
H      4.9305     -1.8544      9.3729
H      4.7635     -6.6571      9.7928
C     17.4987     10.8097     17.5607
C     -2.7713      8.1782      5.0602
O      2.1533      8.5439      4.8547
C     -1.3929      7.8004      7.0203
C      8.8730      8.5334     12.0615
C     20.5687      8.0152     13.0385
C      6.4221      7.3944     -0.7532
H      4.9664      4.4017      1.8182
H     17.4751     10.1262     14.4274
H      2.3032     -1.0088      3.0283
H     -4.6122      6.4601      8.0440
H     13.4101     11.5451     14.4596
C      7.7340      3.3052      9.6521
C      7.2697      6.9307     11.1015
C      7.3821      5.7548      3.1736
H      8.4972      7.2897      2.3535
C     -0.8676      6.5219      5.1293
H      1.6209      0.2697      1.7264
H     14.9479      7.1489     13.0442
C      9.7522     -1.4520      7.1844
C      5.9987      4.9836      9.6971
O      5.5280      3.0093     10.6714
C     16.0368      7.4110     17.9182
C      4.7960      5.6303     -0.0038
C     17.7152      9.1432     14.7776
H     -3.3828      7.4092      5.4197
H      8.4373      7.4503      3.6958
H      3.0757      1.3546     10.5171
H      6.6842     -0.9504      9.9214
H     17.2102     12.5958     16.6091
C     -0.2106      3.6656      8.6516
C     13.2361      8.5552     12.1873
C      1.2905      1.9195      7.5383
H     -1.7273      7.6099      9.4962
C     -0.6355      6.4050      1.4863
H      5.7272      8.1475     -1.6073
H     -2.1327      2.8405      4.1364
C     10.1019      7.7145     12.6580
O     15.5115     10.3491     13.2422
C      6.3699     -4.4015      8.8218
C     16.7422      8.2799     20.4337
C      3.1338      1.4392      9.3675
C      2.8728      1.5661      4.9490
H     -2.3891     11.6748      0.9851
H     -2.4372     10.3325     -0.5749
H      6.2622     -0.9253      6.8011
H      3.4091      4.0012     11.0298
C      3.8299      3.4232      3.2229
H     -4.2378      9.4385      6.4770
C     -2.1139      8.5434      0.6775
C     10.9874      7.3496     11.6197
H     10.8595     -3.3150      7.3222
C      5.1029      1.8955      4.8385
H     16.9724     12.6854     18.3281
H      8.1086      0.5122      7.9833
C      2.6180     -0.6091      8.2660
C      4.6727     -1.8976      8.0154
C     -2.2327      5.2872      3.9012
C     16.8541      9.2600     19.2705
C      2.2466      3.5023      2.9077
C      4.5826     -5.7550     10.1133
H     15.7671      8.3583     13.4622
H     -3.1993      3.5289      2.5901
H      2.8597      5.1184     -0.6717
O      5.7907      6.5220      6.5323
C      0.7432      8.1029      4.4539
H      3.9468     -2.7917      7.5832
C     -2.6676      8.4747      3.6742
C     -1.8475      7.4716      3.0824
H      6.0209     -5.0450      7.9806
C     -2.7274      7.8793      7.7238
H      2.5337      4.1200      5.1188
H     13.7260      9.1542     10.2703
H     -0.8363      3.5941      9.5845
C      2.7930      1.9013      1.2736
C     -0.1403      8.6712      2.1548
O      7.3695      4.1176     11.6106
C     -0.7680      3.2475      1.5877
C     -0.2765      3.9199      4.0732
C      7.4000     -2.5456      7.6376
H     -3.2633      8.8067      7.4438
H     16.0343      9.9230     18.9484
H      0.0147      5.6861     -0.2461
O      0.2297      9.5807      6.4454
C      6.1773     -1.5145      7.6706
C      0.8764      7.3199      6.6965
C     15.0721      7.8074     14.0159
H     15.6457      8.3420     15.9102
C      0.7951      7.5649      3.1197
H      8.6298     -0.1440      9.5537
C      2.8574      0.7184      3.7010
C     -0.1178      2.6335      7.6394
C     10.3044     -2.6717      6.5865
C     -2.5919      3.3621      4.9595
C     17.8383     12.2367     17.4670
C      3.2779      3.9408      9.9692
C      0.4836      2.7010      1.1947
C     -1.2075      7.8857      1.7320
C      4.0440     -0.5647      8.1763
N      2.4331     -0.4600      3.9705
C      3.3506      1.5257     -0.0891
O     17.1217      5.9029     15.1364
C      9.4603      6.4867      0.3058
H     18.9751     10.5645     18.7101
H     -0.7125      1.9210      8.2579
C     -3.0062      4.5009      2.7145
C     -2.7250      7.5600      9.0337
H      7.7784      4.0875      8.9633
H      1.6649      1.6346      6.4232
H      7.1099      4.7074      0.2520
H      8.3587     -3.8106      9.3550
C     -2.2580      9.9197      0.4813
H      5.3418      5.0079     10.5844
H      0.8995      7.1729      9.1028
H      0.1577      9.9878      4.4831
H     14.9131      9.7603     11.3014
H      3.5636      0.7137     -0.7069
H      0.0095      4.6728      8.5510
C     15.2335      7.4153     15.4269
H      3.8170      2.4429     -0.4125
H     -2.8802     10.8163      2.3760
C     13.9265      9.1739     11.2400
H     15.6929     10.4410     16.8380
C      4.2288      8.0249      4.3051
C      7.6818      7.3458      3.1069
C     21.0235      9.7688     14.4865
C     18.9344      8.7236     15.0061
C      4.3508      6.0561      6.5426
C      1.9960      4.8751      2.4689
C      5.8078      6.4264      0.0243
C      5.5548      7.2995      4.1244
C      8.2277      6.6970      0.6665
C      4.2808      4.8878      7.6339
C      1.5302      5.0665      1.0655
H     -2.7157      5.4915      6.5883
C      6.1593      6.9082      5.2102
H      9.8604      5.5859     -0.4247
H      0.0984      2.0878      0.1832
C      7.1881      5.5958      0.7328
H     -0.5025      2.9815      3.4784
O      7.5101      7.1094      5.4302
H      9.1430      9.4391     11.6860
H     21.0763     10.8103     14.8334
H      1.8299      3.4256      4.1561
H     -0.3018      9.6395      2.7376
H      2.7996      3.6294      0.6070
H      4.9009      5.2092      4.6337
C     12.3614      7.5785     11.5388
C     15.8899      6.1990     15.7098
H      1.8452      5.7379      9.1273
C     -1.8320      4.5156      4.9422
C      0.6242      6.8887      5.2343
H     17.8103      8.2934     20.4433
H      1.8880      1.7979      5.0713
C      1.3424      5.7906      4.8748
H      2.0487     -1.6131      8.4215
H     16.7645     11.3538     15.5063
C     -4.7736      6.4204      9.0794
C      4.3786      0.9978      8.4000
C      6.2375      7.7658      3.0416
C     -3.4694      9.4941      5.7481
C     -0.0511      6.3005      2.9116
C     -1.2308      6.3468      3.7604
H      3.9986      6.1132     -0.4598
H     -3.0697      2.5944      5.8285
C      2.0233      0.8112      8.6025
C      0.6715      5.0502      3.5166
C      4.9352      3.6579      2.5338
H      1.4649      4.4454      8.1024
C      6.6422      3.8545     10.4256
H     10.2329     -0.5847      7.6139
H      7.2561     -3.1687      6.8194
C      1.9842      6.8724      8.8240
C     -1.5703      5.5247      6.1238
C      2.3651      1.0538      2.3330
C      1.1889      4.6364      5.7610
C      1.7872      6.4805      7.4042
C      2.2325      4.3562     -0.0914
H     -1.7039      5.6439      1.2061
H      3.5878      2.3840      1.6680
H      4.6569      1.3035      0.2726
H     -4.4841      5.5189      9.2341
H      7.8305      2.6611      8.7592
H     10.7594     -2.3628      5.8175
C     -0.1802      9.1007      5.1568
C     -4.0858      7.6347      9.6583
H      4.7946      4.7180      0.3984
H     21.2097      9.3268     15.5706
C      8.4966     -1.3543      7.7087
H     -2.3502      4.8566      1.9017
H     -3.5754     10.2968      4.8339
H      6.5138      1.5766      9.0846
C     -0.2400      7.2410      7.4677
C      0.2389      3.7171      5.4171
O      7.3744      5.1073      4.2652
C     -1.3202      8.0652      5.4468
C      6.3582      1.4174      7.1680
C      5.2593      1.6893      6.1750
C      3.1385      0.8319      6.1387
H      7.4270      6.2383      5.9911
H      6.8997      2.3796      7.3406
H      5.1130      3.3231      8.1685
H     -0.5330      9.7174      6.9306
H     18.9331     12.4887     17.8567
H      1.2912      8.3567      6.5476
C      1.7677      5.1448      7.1445
H     -0.4525      3.9877      2.1585
C      3.8726      5.3884      5.0728
C      2.8410      2.9404      9.2722
H     21.9258      9.3039     13.9683
C      8.5300      7.5903     10.9982
H      3.6249      5.1141      8.4672
H     10.8027      6.5098     10.9925
H      7.1723      0.7766      6.8467
C      3.9119      2.8341      4.6453
C     17.9924      9.9919     18.5532
C      6.5077     -0.4438      8.7973
C      7.5774     -3.2764      8.8441
C      5.7231      4.5758      8.1990
C      5.9146      0.9967      8.4088
H      0.4707      3.4423      9.2664
H      1.8804      3.6844     -1.0273
H     19.6239      9.6322     13.4441
H      7.6912      5.1503     11.7198
H     -1.6947      3.2874      6.0908
C     14.3638      9.8343     13.8267
H      3.2046      4.9438      9.4123
H     -3.0513      8.9813      2.6858
