266

C     19.6011     -4.3176     13.5864
N     -2.1481     10.5246      1.5591
C      3.7592      1.4136     20.1586
C      2.2489      2.6243      1.9782
C      7.5669      4.6068     14.7852
H      9.9226     -5.8916     15.1534
C      7.6941      3.2799     15.4503
C      3.1724      3.9197      5.3055
C     16.3598     -5.9078     19.3723
C      6.2409      1.9606     17.0914
C      5.7329      8.1628      9.7300
C     13.7277     -4.1194     13.6372
N     -0.0639      2.9521      6.1657
C      0.0868      5.6971      0.5133
O     -1.3222      2.3538      0.6845
C      3.1496      3.8826      6.7809
H     -0.2368      6.3138     -0.3079
C     15.8450     -6.7216     17.1744
C     16.5278     -2.7123     16.3343
H      1.3057      1.3647     23.1262
H      9.3691     -9.9071     18.3965
H     17.5204     -6.3770     15.7343
C     16.8324     -4.0849     15.9402
H      4.2170      6.5036     10.3856
H      5.0942      8.9783     10.2026
H     11.9496     -7.4547     19.6135
H      8.0053      2.2868      8.3762
C      2.8436      2.5220     20.5062
H      7.0895      1.6708     17.6984
O     14.2077     -2.2279     15.1027
C      7.8978     -0.2843     21.3778
C      5.9586      5.8291      9.7147
H      2.3298     -0.0058     19.7793
H      3.7454      5.1806      8.2040
C      6.5829      2.9771     16.1175
H      5.5646      3.0424      7.4944
H      4.2433     -2.8298     22.1136
H      1.2487      5.9146      9.0419
C     17.3266     -2.3280     17.5461
C     10.0205     -4.3306     17.8194
O     15.0166     -4.5251     17.5304
C     -1.5149      8.1945      7.0402
C     -4.2006      8.1713     11.6569
C     20.5214     -5.2194     12.6780
C      6.5294      6.7762     12.0676
H     17.3108     -3.6826     13.9158
H      2.1544     -1.1479      5.5140
H     -3.2310      6.1946      7.5291
H     15.3836     -1.5229     13.6705
C      7.8457      2.4743      9.2736
H      1.1321      1.2625      0.8322
C      6.9162      6.8204     10.5214
C      7.8509      5.5374     15.9408
H      8.1744      7.2518     14.6727
C     11.8901     -6.0169     17.8817
H     16.4362     -4.6273     21.1829
H      3.3799     -0.7695      2.3514
C      9.6482     -0.9268     19.9048
C      6.0362      4.6871      9.1056
C     16.0926     -5.4873     17.8952
C      4.9658      4.8825     12.4818
C     17.6858     -4.0643     14.7673
H      9.6912     -5.4227     18.1767
H      8.4355      7.6204     16.2719
H      4.0845      1.7924     23.5316
H     17.7083     -0.4102     17.3530
C     -0.1433      3.8991      8.5659
H     21.4423     -3.6225     13.7343
C      0.0783      8.8708     -0.9528
C      1.6511      1.9701     20.9257
H     -1.9057      8.3523      9.5838
C     -0.5938      6.4042      1.4057
H      5.6287      7.2791     11.7523
C     -2.9087      7.6857     -0.7693
O     15.1631     -2.3189     13.1406
C      6.2764      8.8398      8.5339
C     16.6197     -4.5799     20.2408
C      3.5015      1.5871     22.5881
C      2.6178      1.3880      5.1080
H     -2.9166     11.1478      1.7895
H      5.7045     -0.5245     20.0001
H      2.2708      4.7637     22.4252
C      4.0575      3.5008      3.3307
H     -3.6656      8.1778      6.9450
C     -2.0343      8.3824      0.2997
C     -1.8006      7.3053     -1.5954
H     11.3075     -2.1018     19.1547
C      5.0118      2.2069     18.0985
H      3.6612     -0.4350     18.7978
C      2.5071     -0.4387     22.2526
C      4.5248     -1.7693     21.6424
C     10.5337     -7.4847     16.6837
C     16.6540     -3.6183     19.4349
C      2.6710      3.7320      2.6337
C      4.8823      6.8302      9.4787
H     15.8499     -4.4885     13.8424
H      9.6594     -6.9438     17.2114
H      3.0118      5.1124     -0.8029
O      5.7183      6.2542      6.5998
C     13.6947     -4.6253     17.3661
H      3.9448     -1.9926     20.6078
C     10.1518     -4.2647     16.2741
C     10.7469     -5.5137     15.6200
H      6.7901      8.1108      7.9678
H      8.5012      2.6439     15.9129
C     -2.8514      8.6897      7.4221
H      2.1354      4.2217      4.9206
H      0.5101      9.7921     -2.8822
H      3.8709      3.8596     13.8897
H     -0.2750      4.8263      8.1585
C      3.5739      1.5714      2.0930
C     12.7593     -4.1586     14.8056
O      4.3331      3.6379     13.0628
O      7.4603      3.9125     11.0180
C     -0.4170      2.9186      1.0924
C      0.2885      3.8370      3.9215
C      6.9510     10.9162      7.3926
H     -3.1499      9.7909      7.3579
H     16.3441     -2.7135     19.7594
H     -0.6701     10.1924      4.4068
H     -0.0227      7.5167     -2.5194
C      5.7800     -1.2293     20.9075
C      0.8200      7.3477      6.6509
C     14.8837     -5.1126     13.7384
H     15.6457     -4.7757     15.7953
C     13.5060     -5.1162     15.7907
H      8.6371      0.5091     21.7368
C      2.3450      0.2059      3.9894
C      0.3437      2.7901      7.5655
C     10.2272     -1.9657     18.9893
C     10.7248     -9.6388     18.5464
C     17.7249     -1.2149     18.0063
C      2.8887      3.9610     22.7501
C      1.1952      2.3192      1.1303
C     -1.3835      7.7542      1.4528
C      3.8858     -0.4555     21.9444
N      2.2328     -1.0361      4.4245
C      4.1797      0.9757      0.6536
O     16.9240     -6.7355     14.9833
C     -3.3623      6.4549      0.1761
H     18.5707     -3.7924     18.8508
H     -0.5152      2.0922      7.8380
C     10.2754     -8.1433     15.1683
C     -2.7181      8.4387      8.9922
H      8.3456      1.7587      9.9845
H      1.5710      0.9545     20.2375
H      7.1058      3.2821     11.7356
H      7.4098     10.6037      9.2305
C     -2.2411      9.7108      0.3775
H      4.0710      6.9095      8.5391
H      3.0443      6.6173      9.3484
H     12.7773     -3.1682     15.0280
H      1.1741     10.4753     -1.2430
H      3.7825     -0.3428      0.5600
H      0.4739      3.6409      9.4030
C     14.8833     -5.4137     15.2888
H      3.6011      1.3968     -0.1924
C      0.8166      9.6881     -1.7495
H     15.3127     -2.8197     16.6106
C      4.4247      8.1540     17.2618
C      7.8985      6.9633     15.6383
C     20.5658     -3.1739     14.1901
C     18.8391     -4.8825     14.6981
C      4.3035      5.7938      6.2930
C      1.8844      5.1728      2.3333
C      6.2896      5.5550     12.6818
C      5.5527      7.1876     17.1288
C     -4.6213      6.5629      0.3054
C      4.1070      4.7746      7.4010
C      1.6372      5.3460      0.9056
H     10.7484     -6.4429     19.4318
C      6.6101      6.7427      5.5190
H     11.2167    -10.3865     18.0420
H      8.9607     -8.1083     14.9652
H      1.5686      2.6020     -0.0698
C      7.4837      5.3393     13.5370
O      7.3435      7.9243      5.9462
H     -3.9225      9.2967     11.7950
H     20.4024     -1.9935     13.8418
H      0.8722      2.9073      3.6792
H     -1.3430     10.1764      2.1753
H      2.4218      3.1481     -0.4406
H      4.6258      5.0322      4.2573
C     -0.6668      7.9811     -1.6086
C     15.6171     -6.6345     15.6840
H      1.6134      7.5766      9.4694
C     10.8804     -8.4109     17.8934
C     13.4046     -5.8837     18.0847
H      5.3771      9.3653      8.0898
H      1.7426      2.1326      5.4668
C      1.4041      5.8394      4.6890
H      1.8239     -1.3857     22.2799
H      1.7462      0.2562      2.1150
H     16.3829     -1.9725     15.5893
H      0.0940      7.2702      8.4518
C     -3.8994      6.4199      8.3955
C      4.3363      0.8217     21.6699
C      6.3790      7.4174     15.8633
C      9.4241     -2.9663     18.2409
C     -0.2727      6.3020      2.8757
C     11.4714     -6.3341     16.4519
H      1.6041      4.8931     -1.1958
H      4.8671      4.8391     11.1834
H     10.5997     -9.5356     19.5969
C      2.0938      1.0183     22.2794
H     -1.0898      9.3082      7.2293
C      0.7746      5.3006      3.4809
C      5.3356      3.7107      2.9239
H      1.5395      4.4723      7.6747
H      8.2198      9.5229      8.4887
C      7.0754      3.5018      9.8231
H      9.8559     -0.0790     20.5161
H      6.5902     10.3123      6.5411
C      2.1028      6.5941      8.9077
C     11.3691     -7.2046     18.7916
C      2.7752      0.0947      2.5901
C      1.1114      4.9551      5.7856
C      2.1363      6.6840      7.3227
C      2.0312      4.4581     -0.2929
H     10.9160     -7.3849     14.7390
H      4.6429      1.4536      2.5086
H     -3.3577      9.2561      9.4132
H      5.1726      1.2075      0.5289
H     -4.8794      5.9609      8.0619
H      5.7300      1.2624     16.5047
C     -0.4254      9.2637      5.0247
C     -3.8718      7.4728      9.2035
H      4.2834      5.7230     12.7355
H      9.3178     -3.9169     15.4905
C      8.2700     -1.0276     20.1700
H     10.5127     -9.1492     15.8006
H      8.2190     -2.6924     17.9106
H      6.3883      1.7838     22.0674
C     -0.2492      7.3738      7.4666
C      0.2829      3.9778      5.3912
O      8.0403      5.0500     17.0037
C     -1.4304      8.2831      5.4550
C      6.1838      1.2908     20.0839
C      5.1276      1.7671     19.3660
C      3.2203      0.4616     19.2164
H      7.3584      7.6820      6.8930
H      7.3347      1.6488     19.9797
H      4.2967      3.6850     21.9169
H     18.2585     -1.1899     18.8777
C      2.0286      4.9017      6.9101
H     -0.3418      3.9704      1.0967
C      3.8759      5.2059      4.9231
C      3.5010      2.9540     21.8043
H     20.2632     -3.0144     15.2677
C     -4.6137      7.4079     10.4936
H      1.9575      3.5940     22.9353
H     -2.3942      6.8492     -2.2507
H      6.3135      0.4209     19.5573
C      3.7190      2.6864      4.5930
C     17.5584     -3.5694     18.3774
C      6.6164     -0.3671     21.8544
C      7.2629      9.9348      8.4642
C      5.4153      4.1487      7.7762
C      5.9370      0.9672     21.5121
H     -1.0432      3.3490      8.6669
H     -3.1637     10.3744     -0.3393
H     19.2135     -3.8807     12.7350
H     -2.4834      6.0926      0.4406
C     14.3837     -2.8074     14.0901
H      3.6221      4.5236     23.4456
H     10.9193     -3.5288     16.4405
