260

C     19.9414      9.0063     14.0776
C      4.0057      1.5289      7.0294
C      2.0350      3.0352      1.1400
C      7.4102      4.8719      2.5331
H     -2.9597      3.2294      2.8326
C      7.1440      3.6839      3.1356
C      3.2829      3.8519      5.4747
C     -6.1684     10.0893     10.3599
C     16.2518      7.1463     19.4761
C      6.1276      1.6003      3.9098
C     -7.1063      9.0207      9.5428
C     13.9100      8.9222     13.8392
N     -0.2720      2.7320      6.5690
C      0.2265      5.6872      0.6610
O     -1.4881      2.2867      1.6726
C      3.2736      4.0472      6.9935
C     15.4953      6.2221     17.4423
C     16.4558     10.3600     16.6045
H    -11.8328     13.7771      9.5412
H     -3.5255      3.4183      5.1731
H     17.3091      6.3721     14.8442
H     -6.5044     10.7870     12.1768
C     16.9746      9.0910     16.1097
H     -8.1839      8.3762     11.1746
H     -5.6556     10.8143      9.7328
H      7.8546      3.5736      3.8587
H     13.1748      7.1995     11.3422
H     -1.0145      4.9430      6.8297
C      3.2269      2.7741      7.7069
H      6.9887      0.9586      3.8966
O     15.1237     10.8565     14.7929
C     -4.7609     12.7587      8.5671
C      6.8369      5.7585      9.8110
H      2.3307      0.0516      6.1788
H      3.0097      6.9785      9.4512
C      6.1414      2.6615      2.9114
H      6.1911      4.6929      7.9369
H     -5.2666      9.5117     10.8171
H     -8.1362     10.9516      9.1683
C     17.2559     10.7431     17.8049
C     -2.8307      8.5342      5.2017
O      2.0762      8.7080      4.8664
C     -1.4837      7.6013      7.2646
C      8.6435      8.2445     12.0254
C     20.5045      7.8677     13.1614
C      6.5514      7.0930     -0.6048
H      4.6964      3.3747      1.2970
H     17.5843     10.3463     14.6709
H      1.0231     -0.8870      2.7671
H     -4.9714      6.2852      7.7720
H     15.2324     10.8099     15.7650
C      7.4565      6.2351     11.2221
C      7.9293      5.7916      3.6218
H      8.5301      7.2234      2.3492
C     -0.9972      6.6089      5.2974
H     15.5111      8.7884     19.9713
H      3.8012     -0.0595      1.7356
H     -7.4660     11.7375     11.1593
H     14.9297      7.2246     13.0873
C     -3.0805     11.4841      7.6684
C      5.4291      5.4356      9.6060
C     16.0681      7.5707     18.0383
C      4.5469      6.0932      0.4796
C     17.9918      9.3470     15.0504
H     -3.8231      8.2010      5.5236
H      8.7861      7.3972      3.9362
H     -9.1034     13.9997     10.4186
H     -6.8694     12.0525      9.9990
C     -0.0995      3.7643      8.6161
C     13.4299      8.6441     12.3366
C      1.8592      2.0211      7.6841
H     -1.8941      7.7899      9.7376
C     -0.8628      6.2384      1.4317
H      5.9713      7.5798     -1.3019
H     -2.3137      2.1608      5.0904
H     -7.9084     10.0604     11.6172
C      9.9361      7.5005     12.6413
O     14.0672     11.1067     13.0324
C     -6.6790      8.8617      8.0853
C     16.4069      8.4067     20.2667
C     -9.1838     14.3546      9.4064
C      2.8309      1.5552      4.5461
H     -2.0706      9.9456     -1.1030
H     -6.8941     11.9291      7.0188
H     -9.6932     16.2350     11.0781
C      3.5910      3.2162      3.1684
H     -3.8852     10.2628      5.6856
C     -2.3802      8.4148      0.5501
C     11.2950      7.2683     11.8643
H     -1.7909      9.3081      7.4144
C      5.2058      2.2295      4.9737
H      4.0705      0.2975      5.4884
H     -4.7184     13.9758      8.1961
C    -10.3913     12.3842      8.4668
C     -8.2353     11.1349      8.2435
C     -2.3027      5.2444      3.7726
C     16.5766      9.7467     19.7208
C      2.1785      3.4987      2.6545
C     -8.0948      8.3660     10.1104
H     16.1185      8.2593     13.8996
H     -3.0898      4.5591      1.7327
H      1.6461      4.3694     -0.6967
O      5.5969      6.7963      6.4428
C      0.6969      8.2081      4.5030
H     -8.8063     10.1258      7.8745
C     -2.4903      8.6937      3.6882
C     -2.2335      7.6560      2.9313
H     -7.2702      9.3786      7.4371
C     -2.5819      7.2404      7.8120
H      2.2150      4.1598      5.4821
H     13.9945      8.8104     10.5932
H      6.4511      2.0855      2.0736
H      0.3851      4.8724      8.4286
C      3.2265      1.8396      0.9811
C     -0.1879      8.4911      1.8080
C     -0.4742      3.0659      1.2817
C     -0.4546      4.1486      4.3107
C     -5.7332     10.7415      7.3116
H     -3.4231      7.7083      7.2336
H     15.5331     10.3176     19.7949
H     -0.0322      5.4162     -0.4709
O      0.2460      9.4205      6.4433
C     -6.8697     11.4634      7.8849
C      0.7756      7.1163      6.9879
C     15.0156      7.8735     14.0926
H     15.9870      8.4433     15.6487
C      0.4709      7.6647      3.0385
H     -4.4364     12.9543      9.4331
C      2.6275      0.4815      3.4393
C      0.4254      2.5627      7.8679
C     -2.2678     10.3510      6.9333
C     -2.5505      3.3926      5.4449
C     17.8516     11.9280     17.7840
C     -9.6085     16.5314     10.0466
C      0.7608      2.6089      0.6526
C     -1.4166      7.7050      1.6500
C     -9.0279     12.3663      8.0936
N      1.5989     -0.3558      3.5928
H      3.7629      1.1943     -0.8973
C      2.9312      1.3038     -0.3940
O     16.8794      6.4320     15.7722
C      9.4145      6.3002      0.4070
H     18.8946      9.3827     18.9044
H     -0.1959      1.9443      8.5192
C     -2.7863      4.3611      2.7290
C     -2.8099      7.2892      9.3268
H      1.7911      1.7662      6.5926
H      7.3006      4.8676      0.3970
H     -5.2332      9.2056      6.7546
C     -2.3117      9.6741     -0.0524
H      5.0288      4.9133     10.4706
H      2.3627      7.9090      9.2965
H     -1.1169      9.6229      5.0907
H     15.2013      9.9530     11.9457
H      2.2402      2.0380     -1.0608
H     -0.3597      3.5302      9.6761
C     14.8221      7.2939     15.5011
C     14.4829      9.0365     11.5427
C     -7.0694     10.7186     11.3884
H     15.4957     10.3999     16.8265
C      4.4942      8.2145      4.5248
C      7.9361      7.2492      3.3908
C     21.1738      9.5268     14.6918
C     18.9978      8.4011     14.8477
C      4.4057      6.1111      6.3727
C      1.7456      4.8629      2.6538
C      5.7877      6.3824      0.6548
C      5.6779      7.4787      4.2942
C      8.2279      6.5822      0.9048
C      4.1177      5.3460      7.6198
C      1.4419      5.2892      1.2459
H     -2.3625      5.8911      6.6000
C      6.3759      7.3371      5.4861
H      9.4807      5.3588     -0.3497
H      0.5674      1.6575      0.7702
C      7.0617      5.6046      1.1918
H     -0.6643      3.3880      3.5761
O      7.5279      7.4191      5.9267
H      8.5650      9.3111     12.1416
H      1.5051      2.9269      3.3287
H     -0.4935      9.1791      2.5355
H      3.4897      4.8111      0.2042
H      4.4319      5.4738      4.2351
C     12.6275      7.4914     12.1509
C     15.6002      6.2249     15.9435
H      1.3933      6.8836      9.2168
C     -1.7424      4.5363      4.9605
C      0.4942      6.9581      5.4934
H     16.8674      8.5635     21.2759
H      1.9496      2.1975      4.6993
C      1.2379      5.6983      4.9199
H      2.1993     -0.2872      1.3111
H     16.9003     11.1638     15.6958
H     -0.2508      6.9422      9.1281
C     -5.2767      6.4404      8.7757
C     -8.4907     13.8367      8.3396
C      6.3959      7.7442      3.1219
C     -2.8607     10.0874      5.7214
C     -0.2461      6.2719      3.0984
C     -1.5646      6.5596      3.7735
H      3.9222      6.2222     -0.4530
H     -2.6914      2.8510      6.3694
C    -10.9412     13.6765      8.7194
C      0.4325      5.2321      3.5090
C      4.7497      3.4092      2.4991
H     -6.4859      7.6224      8.2642
H     -5.8098     10.6707      6.1052
C      2.2449      6.9254      8.6957
C     -1.4615      5.5139      5.9805
C      2.8231      0.5192      1.8119
C      0.9909      4.6729      5.8820
C      2.2175      6.4697      7.2350
C      2.3189      4.3767      0.2910
H     -1.6828      5.3404      1.6004
H      4.2087      2.1999      1.3671
H      2.3660      0.5296     -0.0027
H     -1.3236     10.8475      6.8843
H      5.7301      0.7254      3.0946
C     -0.4009      8.9916      5.4030
C     -4.2563      7.2441      9.5796
H      3.9609      5.5505      1.1806
H     21.5798     10.1107     14.1570
C     -4.4383     11.5413      7.5960
H     10.1305      6.1939      1.2864
H     -2.2942     10.9200      5.2231
H     -6.6472     14.7011      9.2138
C     -0.3075      7.0012      7.8712
C      0.2343      3.5326      5.5001
O      8.5995      5.4576      4.6004
C     -1.5112      7.9861      5.8213
C     -6.6312     14.3337      7.1176
C      5.2497      2.0769      6.3555
C      3.0821      0.7173      5.8527
H      8.1120      5.9204      5.4237
H     -4.4095      8.8955      8.3734
H      1.1715      9.0218      6.4544
H     18.4481     12.5814     18.2249
H    -11.1250     11.4499      8.4097
C      2.0123      4.8674      7.0408
H     -0.7322      4.0714      1.6205
C      3.8721      5.3821      5.1036
C     -9.5148     15.6371      9.1741
C      8.2730      7.2883     10.9668
H      3.5843      5.8214      8.3535
H     11.4236      6.3865     11.3132
H     -6.5507     13.2646      6.4648
C      3.8860      2.7447      4.6554
C     17.6408      9.7055     18.5856
C     -6.3892     12.4139      8.8968
C     -5.2751      9.4685      7.8772
C      5.2666      4.7942      8.4366
C     -6.9816     13.8228      8.4754
H     -0.9932      4.0717      8.1357
H      0.7926      3.0795     -0.4255
H     19.6974      9.5110     13.2105
H      7.8828      5.3646     11.9935
H     -1.2502      2.7519      6.5341
C     14.2480     10.3322     13.9987
H    -10.1346     17.4197      9.7453
H     -2.4683      9.8145      3.6084
