259

C     20.0156      8.4134     13.9096
N     -2.1944     10.6477      1.5146
C      3.7649      1.8184      7.1422
C      2.3377      2.3076      1.8225
C      7.6189      4.8315      2.1572
H     -3.0858      6.9037      2.5510
C      7.7682      3.5246      2.9259
C      3.3164      3.9275      5.1479
C     16.2314      7.2849     19.3597
C      6.1813      1.8631      4.0231
C     -7.3907      8.3314      9.9405
C     13.5583      9.0303     13.6871
N     -0.2964      2.7158      6.2057
C      0.4480      6.0604      0.4853
O     -1.3224      2.5446      1.0491
C      3.1990      4.0353      6.6321
H      0.7969      6.3705     -0.4394
C     15.7072      6.2409     17.2988
C     16.3064     10.4124     16.4173
H    -11.9093     14.5576      9.6541
H     -2.7682      2.6952      4.7905
H     18.0726      6.7190     14.8728
C     16.8210      9.0640     16.1147
H     -8.5131      6.9883     11.0166
H     -7.3204      8.6366     11.0460
H     -0.6228      5.5859      6.6466
H      6.6512      2.6249      8.1540
C      2.8146      2.8846      7.5390
H      7.1443      1.8330      4.4834
O     13.9267     10.6397     15.3298
C     -4.8995     12.6632      8.2662
C      6.2380      5.8966      9.8137
H      2.3724      0.0786      6.9197
H      4.0117      5.8989      7.8306
C      6.4099      3.0514      3.2049
H      5.3989      3.4212      8.1657
H     -8.3722     10.2485      9.2334
H      2.5032      6.5304      9.2735
C     17.3135     10.8269     17.5777
C     -2.7158      8.8331      4.9039
O      2.0838      8.7382      4.8803
C     -1.4701      8.5297      7.1285
C      8.5861      7.9258     11.6686
C     20.5857      7.5279     12.7199
C      6.4479      6.7184     -0.7522
H      5.7406      4.7447      2.2469
H     17.4000      9.8617     14.1785
H      1.4231     -0.6165      5.6162
H     -4.2478      6.9563      7.0794
H     15.0362     11.8888     13.4802
C      7.4843      2.4362      8.9335
H      0.2756      1.1236      1.7867
C      6.9781      6.4209     10.8757
C      7.7401      5.9263      3.0313
H      8.2183      7.7898      2.2918
C     -0.9436      6.8191      5.0408
H     15.8183      8.2598     20.9682
H      3.7750     -0.7937      2.7932
H     14.8693      7.9569     12.5782
C     -3.2381     11.5371      7.4034
C      6.3527      4.8159      8.8779
C     16.1501      7.6040     17.9356
C      5.1722      4.8167     -0.4006
C     17.7882      9.5334     15.0221
H     -2.9125      7.7162      5.0970
H      8.2108      7.5727      3.9740
H     -9.3043     14.6587     10.5731
H     17.4746     12.7960     17.2471
C     -0.4488      3.7884      8.7158
H     21.8588      9.5354     14.4090
C     13.0856      8.9439     12.2816
C      1.2763      1.9563      7.6394
H     -1.8129      7.6120      9.6545
C     -0.4353      6.3998      1.5150
H      5.4837      7.0871     -0.7371
C     10.2774      7.3431     12.4320
O     15.1397     10.9503     13.3138
C     -6.6161      8.1108      8.8816
C     16.6983      8.2877     20.2124
C     -9.6060     14.6725      9.4909
C      2.5396      1.3013      4.9819
H     -3.1988     11.0471      1.7992
H     -7.0333     11.9214      7.2622
H    -11.0104     17.6111      9.2935
C      4.0107      3.0980      3.1020
H     -3.5109      8.1363      7.2395
C     -2.0564      8.4072      0.5198
C     11.2429      7.1371     11.3880
H     -1.9548     10.5602      6.5136
C      4.9873      1.9138      4.8892
H      4.1951     -0.1261      6.2044
C    -10.5756     12.7177      8.9129
C     -8.4218     11.2136      8.7740
C     -2.4170      5.1866      3.7863
C     16.7413      9.5544     19.5098
C      2.8388      3.4394      2.4282
C     -7.9882      6.8194     10.0409
H     15.8219      8.9500     13.7729
H     -3.3464      5.8509      4.0487
H      1.3065      4.3423     -1.2675
O      5.8606      6.5225      6.3296
C      0.8968      7.9909      4.4253
H     17.0236     10.3809     20.3057
C     -2.7822      8.8044      3.3283
C     -2.1748      7.4355      2.8533
H     -7.0859      7.3973      8.1972
H      8.7101      3.6769      3.5030
C     -2.7938      8.6914      7.9537
H      2.3132      4.0810      4.6907
H     12.9899      9.9483     10.3398
H      5.1414      3.1069      0.0608
H      0.4501      4.2777      8.6823
C      3.4250      1.1609      2.0145
C     -0.1490      8.5560      1.8806
O      4.4826      3.8168      0.3578
O      7.3088      3.8444     10.8600
C     -0.1733      2.8290      1.2160
C      0.1381      3.8901      3.7003
C     -5.8492     10.5741      7.6340
H     -3.0963      9.7275      7.9483
H     15.7839      9.8542     19.0494
H     -0.1005     10.0211      4.4460
H     13.0304      7.8795     10.5625
O      0.5924      9.6520      6.2196
C     -6.9239     11.4895      8.2439
C      0.5441      7.2203      6.6948
C     14.9704      8.1130     13.6703
C      0.7889      7.6721      2.8759
H     -4.4835     13.7256      8.2788
C      2.2459      0.0365      4.1567
C     -0.1320      2.7427      7.6324
C     -2.9041     10.8988      6.2211
C     -2.7013      3.6335      5.5894
C     17.8957     11.9570     17.7839
C    -10.1894     17.4426      9.8246
C      1.0864      1.7009      1.1625
C     -1.3007      7.6796      1.7273
C     -9.2706     12.4504      8.7958
N      1.8124     -1.0149      4.7665
C      4.2402      0.7327      1.0146
O     16.9908      5.9868     15.0048
C      9.6566      6.3491      0.1704
H     18.5675      9.4525     18.4228
H     -0.5654      1.8749      7.9593
C     -2.3778      4.5938      2.5109
C     -2.8311      8.1826      9.2722
H      6.9542      1.6509      9.5513
H      1.0385      1.6194      6.6257
H      7.3266      3.3033     11.7059
H     -4.9501      9.1573      8.7794
C     -2.4173      9.7704      0.4915
H     -8.8586      6.8466      9.3250
H      1.6564      7.5970      8.5448
H     -0.1869      9.3360      2.6807
H     14.4836     10.1851     11.2881
H      4.9169     -0.1842      1.1422
H     -0.3937      3.1560      9.5339
C     15.0209      7.5333     14.9653
H      3.4630      0.4530      0.0599
C     13.3336     10.1785     11.3274
H     15.1564     10.7100     16.1870
C      4.3729      8.4599      4.4414
C      7.7009      7.3720      3.0579
C     20.9537      9.8921     13.8322
C     18.8327      8.3713     14.6872
C      4.4851      6.0391      6.1553
C      2.1892      4.9633      2.2077
C      6.4168      5.3598      0.0547
C      5.7461      7.6046      4.2748
C      8.3404      6.3139      0.3585
C      4.3021      5.0810      7.2563
C      1.4997      5.2731      0.8704
H     -2.2507      5.6131      6.7679
C      6.3339      6.8482      5.2355
H     -1.2421      2.2382      6.0847
H     -3.1718      5.0700      1.8791
H      1.4860      1.0603      0.3821
C      7.4133      5.2940      0.9292
H     -0.7796      4.0978      3.6718
H      8.6135      9.0440     11.3844
H     20.5596     10.4294     12.7085
H     -2.2411     10.3984      2.5128
H      2.4263      5.6746     -0.8370
H      4.6603      4.9124      4.2149
C     12.3007      8.1119     11.3357
C     15.6738      6.2581     15.4427
H      0.8795      6.0874      8.6041
C     -2.1102      4.6740      5.1567
C      0.6297      6.9042      5.1628
H     17.9212      7.8734     20.7484
H      1.6219      2.1317      5.0671
C      1.4596      5.7208      4.5311
H      2.2755      0.0218      1.9498
H     16.3741     10.8151     15.4395
H      0.2409      7.7197      8.3077
C     -4.3418      6.4670      8.1938
C     -8.6894     13.9385      8.5779
C      6.3388      7.6356      3.0260
C     -3.6930      9.7853      5.7949
C     -0.0432      6.3063      2.8570
C     -1.4222      6.5233      3.6879
H      3.1256      4.3614     -0.5453
H      4.9294      4.7970     -1.4906
H     -2.9049      3.3467      6.6404
C    -11.0765     14.1455      8.8478
H     -0.9613      9.3693      6.5745
C      0.9710      5.2647      3.2814
C      5.2568      3.6798      2.6446
H      1.2524      4.7693      7.4802
C      7.0296      3.6270      9.4559
H     -2.3263     11.9038      7.8619
H     -6.3439     10.5032      6.7232
C      1.7667      6.4452      8.4965
C     -1.5376      5.6271      6.0520
C      2.9361      0.1502      2.8690
C      1.0504      4.6322      5.6555
C      1.9469      6.4932      6.9856
C      2.0314      4.7969     -0.4212
H     -1.5368      4.8282      1.9526
H      4.2182      1.9124      2.4449
H     -3.0910      9.1722      9.8786
H      4.9301      1.4455      0.6331
H     -5.1335      5.7782      8.2558
H      5.8619      0.9465      3.3595
C     -0.0826      9.1177      5.0060
C     -3.9845      7.1825      9.3326
H      4.6178      5.7831     -0.1888
H     -3.6395      9.2742      3.0376
C     -4.6091     11.6306      7.6179
H     -2.6916      3.3434      2.6693
C     -0.3488      7.7408      7.5650
C      0.4780      3.3856      5.2596
O      8.0497      5.4432      4.3260
C     -1.3726      8.3526      5.4640
C     -6.8778     14.2242      7.0164
C      5.0777      1.9169      6.3496
C      3.1516      0.7207      6.3460
H     -5.9369     13.8666      6.7063
H     -8.5909     16.1191      8.9900
H      0.8855      8.6381      6.4364
H     18.7640     11.8766     18.4795
C      2.1344      5.0293      6.5712
H      0.0615      3.8236      1.5125
C      3.9304      5.3821      4.8705
C     -9.7163     16.0835      9.1222
C      8.3355      7.0454     10.6893
H     -9.8421     17.8749     10.7575
H     10.9823      6.5067     10.5871
C      3.6831      2.4743      4.5504
C     17.6844      9.5920     18.2456
C     -6.4139     12.6646      8.7428
C     -5.6603      9.0925      8.1936
C      5.3907      4.3746      7.8444
C     -7.1633     13.9891      8.4420
H     -1.2923      4.5859      8.7849
H      9.9830      5.3622      0.5639
C     14.0889     10.3626     14.1307
H     -9.5236     18.3008      9.4921
H     -2.2729      9.6655      3.3321
