269

C     19.8083      8.5815     13.5203
N     -3.3335     10.5216      1.9385
C      3.9074      1.5219      7.2223
C      2.2836      2.4306      2.1944
C      7.3522      4.5114      2.0337
H     -3.1165      7.0277      2.5910
C      7.6823      3.0573      2.3480
C      3.2531      3.8039      5.2565
C     16.2101      7.2302     19.3678
C      6.5228      1.9087      4.1882
C     -7.0937      8.2090      8.9826
C     13.6682      8.7572     13.7481
N     -0.0108      2.5008      6.4629
C      0.6640      6.2659      0.8394
O     -1.2209      2.5016      1.3792
C      3.2117      3.8744      6.7950
H     13.0665      7.3152     11.2684
C     15.5506      6.1693     17.3387
C     16.7360     10.0993     15.8398
H    -11.8045     14.2534     10.0633
H     -1.8021      2.8236      5.8378
H     17.6316      5.9775     15.5006
C     17.0548      8.7844     15.7587
H     -8.5469      6.5510      9.9507
H     -6.3151      8.0676      9.6125
H    -11.1344     15.6249     10.5033
H     -2.9299      6.2500      6.4647
H     -6.1027     14.5104      8.8791
C      3.1387      2.8522      7.9125
H      7.4189      2.0601      4.7680
O     14.3292     10.4067     15.4970
C     -5.3023     12.4301      9.0476
C      6.3671      5.6442      9.5452
H      2.9263     -0.1162      6.7512
H      4.1057      4.4419      8.5408
C      6.4847      2.3287      2.8788
H     -8.9454     12.2356     10.1102
H      2.9171      7.7462      9.1710
C     17.3851     10.6985     16.7885
C     -2.7254      8.9633      5.2262
O      2.1420      8.5793      4.7569
C     -1.1768      8.8129      7.1273
C      8.7210      7.8268     11.5387
C     20.4190      7.3900     12.5113
C      6.3172      6.7193     -1.1996
H      5.5519      3.2506      1.2197
H     17.9691      9.6576     13.8499
H      1.8952     -1.3353      5.5961
H     -5.2024      6.2141      7.5168
C      8.1765      2.8489      8.2702
H      0.6885      1.2254      0.9402
C      7.1794      6.2133     10.6192
C      7.9402      5.4185      2.7599
H      8.2204      6.9494      1.9268
C     -1.2950      7.0912      5.2993
H     16.2858      8.7644     21.0138
H     17.0082     10.5146     14.7078
H      2.7150      5.7309      0.7027
C     -3.5193     11.4770      7.4913
C      6.2155      4.2296      8.9397
C     15.8826      7.5772     17.9374
C      4.7117      5.3246     -0.3740
C     17.8119      8.7683     14.5903
H     -3.2937      8.3284      6.0396
H      8.3089      7.5915      3.7131
H     -1.0305      1.6526      0.8225
H     18.6453     11.7705     18.1985
C     -0.3361      3.7047      8.4720
H     19.2762      9.9734     14.7198
C     13.3566      8.9745     12.3842
C      1.6446      2.1178      8.2457
H     11.1479      6.6608     11.0642
C     -0.5193      6.4071      1.7014
H      5.2933      7.2503     -1.1332
H     19.2229      9.2778     13.0787
C      9.9645      7.4667     12.5257
O     15.6600     10.1117     13.8146
C     -5.9996      8.4714      8.0556
C     16.7015      8.5445     20.0259
C     -9.4299     14.4175      9.6238
C      2.6879      1.1698      4.8348
H     -2.5456     10.6973      2.5096
H     -3.5314     11.4339      1.6388
H     -7.0344     12.6916      6.7976
H      3.1479      6.0944      9.3219
C      4.4163      3.4007      3.0576
C     -2.4954      8.4142      0.6861
C     11.3152      7.1664     12.0551
H     -2.5420     11.9331      5.6326
C      5.2552      1.9743      5.1344
H     18.2456     12.4974     16.8960
C    -10.6080     12.4928      8.7967
C     -8.4028     11.0197      8.2353
C     -2.1772      5.1621      3.9440
C     16.7346      9.6687     19.0173
C      2.7084      3.6818      2.7397
C     -7.7189      6.5325      9.1295
H    -11.1685     11.8787      9.5529
H     15.6005      7.2975     13.6727
H      9.3030      4.3266      4.5618
H      0.7019      3.5029      0.1484
O      5.4508      6.4839      6.1899
C      0.6926      8.0911      4.6015
H     -8.9949     10.0141      8.4926
C     -2.8501      8.7851      3.6939
C     -2.4272      7.7246      2.8816
C     -2.2841      8.7821      7.8557
H      2.0112      3.8776      4.9095
H      4.3983      4.6249      1.2114
H      0.2646      4.3914      9.2512
C      3.1764      1.1275      2.0554
C     -0.3116      8.6232      2.0747
O      4.0272      4.3914      0.3703
O      7.7668      3.8257     10.4474
C     -0.1993      3.0239      1.8310
C      0.3409      3.6217      4.3240
C     -5.9958     10.7242      7.2004
H     16.3902     10.6285     19.3124
H     -0.4786      9.4234      3.8409
H     12.1956      8.4486     10.6446
O      0.5170     10.2070      5.4805
C     -7.0852     11.2421      8.0362
C      0.8544      7.3708      6.8351
C     14.5804      7.4622     13.9908
H     15.8990      8.1972     15.2902
C      0.5275      7.5185      3.2511
H     -5.0265     13.4124      8.9818
C      2.4881     -0.0640      3.9909
C      0.4265      2.7269      7.8490
C     -2.9244     11.1794      6.2090
C     -1.9081      3.8199      6.1155
C     17.5318     11.9077     17.7132
C    -10.2985     16.3443     10.4603
C      0.9129      2.1517      1.7918
C     -1.3579      7.6629      1.8487
C     -9.2389     12.0560      8.8363
N      2.1721     -1.2099      4.6091
H      7.7107      2.3186      1.5249
C      3.3394      1.3493      0.1982
O     17.0403      6.2165     14.8327
C      9.4541      6.1096     -0.0431
H     -7.1836      8.9377      6.4703
C     -2.3547      4.2124      2.9372
C     -2.8581      8.3257      8.9884
H      7.6447      3.0248      7.4449
H      1.8644      1.0516      6.7722
H     -5.5997      9.0982      5.9452
C     -3.3529      9.5177      0.9742
H     -8.4360      5.9262      8.6238
H      1.4430      6.4812      8.8969
H     -0.0418      9.6340      2.6176
H     13.9355      9.7609     10.6675
H      2.6601      0.5953     -0.0862
H     -0.9736      4.1190      7.5010
C     14.8958      7.4622     15.3602
H      2.9945      2.4786      0.4405
C     14.0865      9.9063     11.7721
H      7.8383      5.4556     10.9902
H      2.5856     -1.9065      4.1970
C      4.3979      8.1249      4.2735
C      7.8801      6.9059      2.7780
C     20.2883      9.5928     14.5015
C     18.9324      7.9685     14.5975
C      4.2208      6.0396      6.3504
C      1.9378      4.9073      2.5579
C      6.0712      5.4313     -0.3183
C      5.6215      7.1953      4.0006
C      8.0093      6.2248      0.2491
H     14.7644     10.7495     12.0572
C      4.1363      4.9410      7.5099
C      1.7021      5.1809      1.0700
H     -3.0653      9.2013      7.2785
C      6.2575      7.1462      5.1551
H      1.8367      1.6178      4.5007
H     -3.1336      4.2140      2.2327
C      7.0617      5.4577      0.7225
H     -0.6325      3.2899      4.1242
O      7.4128      7.4902      5.2846
H      8.8074      8.9490     11.4879
H     20.8217      9.1037     15.3910
H      1.1077      3.1666      3.6781
H      1.7328      4.8931     -0.7772
H      4.5507      5.2098      4.5600
C     12.2568      8.0254     11.5913
H      6.5001      4.7403      7.0958
C     15.6039      6.2590     15.8702
C     -1.7528      4.9092      5.3518
C      0.3538      6.9171      5.4331
H     -7.7393      8.9436      9.2820
H      3.4591      1.1040      4.2594
C      1.0817      5.6811      4.9405
H    -11.3937     12.4598      7.8352
H      3.4288     -0.9760      2.2975
H     14.4120     10.3130     16.6284
H     -2.1964      8.0147      9.7777
C     -5.1329      7.2609      7.8533
C     -8.6228     13.6977      8.4837
C      6.4264      7.2468      2.6983
C     -3.7020     10.2290      5.3115
C     -0.2917      6.2139      3.1769
C     -1.8032      6.6445      3.8173
H      2.2087      3.4707     -0.0744
H      4.9752      5.0933     -1.5962
H     -2.0700      3.9179      7.2142
C    -11.0064     14.0777      9.3800
H     -2.1699     10.4463      6.5195
C      0.5834      5.2356      3.5720
C      5.3848      2.9648      2.2477
H      1.5806      4.4908      8.2367
H     17.6403      7.9932     20.3610
C      7.5249      3.6101      9.3480
H     -2.9183     11.9358      8.3341
H     -6.1432     11.7132      6.3692
C      2.4356      6.8798      8.6549
C     -1.9545      6.2417      6.4298
C      2.6360     -0.1183      2.5477
C      0.9549      4.8612      6.1816
C      2.1330      6.7064      7.2870
C      1.6052      4.2292      0.0890
H     -1.0683      5.4785      1.1958
H      4.3346      1.3621      1.9910
H     -3.4160      9.1905      9.6407
H      4.3874      1.3172      0.1118
H     -4.5894      7.7081      6.9355
H      9.3806      2.6529      7.9494
H     -3.4778     10.3840      4.2625
H      6.5634      0.8559      3.6973
C     -0.1103      9.2000      4.9412
C     -4.3230      7.6076      9.0201
H      4.3323      6.2862     -0.5298
H     -3.8493      8.8967      3.3677
C     -4.6790     11.1178      7.9050
H     -2.5810      3.4081      3.8308
H     -4.9734      9.9590      5.2718
C     -0.0417      7.9707      7.9359
C      0.5322      3.6301      5.7756
O      8.7817      5.0073      3.9463
C     -1.2189      8.5194      5.7060
C     -6.7216     13.8439      7.1424
C      5.1576      1.7436      6.5082
C      2.7904      0.8317      6.3182
H     -5.7916     14.5725      7.4402
H     -8.2498     16.4991      9.6178
H     -4.9569     11.8158      9.8280
H      1.2660      9.5644      6.1462
H     17.1739     12.7997     18.3384
H      0.5329      8.3100      8.9368
C      1.8428      5.1825      7.3276
H     -0.5097      4.2365      2.2285
C      3.6422      5.1970      5.0512
C     -9.1833     16.0146      9.3249
H     20.5579     10.5376     14.0718
H      0.5309      6.3490     -0.1962
C      8.2890      7.2029     10.3844
H     -9.6839     16.1936     11.4749
H     11.7588      6.4794     12.6692
C      4.1790      2.9408      4.4126
C     17.5275      9.5254     17.9691
C     -6.6661     12.3280      9.0261
C     -6.3266      9.3616      6.8146
C      5.6503      4.2759      7.7655
C     -7.1387     13.6578      8.5912
H     -1.3432      5.8095      7.3078
H     -4.2981      9.1452      0.9441
H     -7.0300     12.0376      9.9050
H      9.6471      4.9327      0.6317
C     14.5862      9.9581     14.2770
H    -10.7733     17.3316     10.1152
H     -2.1958      9.6455      3.3322
