262

C     19.5352      8.6506     13.6775
N     10.5359     10.6991     14.5677
C      4.1856      1.7928      6.9944
C      2.1047      2.7138      2.3689
C      7.5951      4.9882      2.3213
C      7.9192      3.5353      2.5247
C      3.3976      4.0277      5.1796
C     16.2908      7.2685     19.3882
C      6.5909      2.0519      4.0600
C      5.4678     -4.6777      8.9219
C     13.6326      8.6859     13.9312
N      0.6353      2.1801      5.8236
C      0.9921      6.2739      0.6202
O     -1.2665      2.6020      1.3818
C      3.0171      3.9630      6.8350
H     13.6359      7.5418     12.3047
C     15.7313      6.2765     17.1892
C     16.2109     10.3321     16.3061
H      1.3391      0.6198     10.0646
H     -2.5094      2.4323      5.0942
H     16.9715      6.9785     14.4909
C     17.0073      8.9487     16.0950
H      4.2297     -6.1717      9.8898
H      4.7740     -2.8340      9.0540
H     -0.5615      5.4402      6.7419
H      6.9108      2.3800      9.2844
C      3.2898      2.8621      7.7277
H      7.5175      2.4950      4.6559
O     14.0435     10.4380     15.5362
C      8.0174     -0.2657      8.6623
C      6.2215      5.8831      9.9193
H      3.3307     -0.2225      6.3385
H      3.8661      5.3253      8.3009
C      6.6421      3.0592      2.8739
H      4.0633     -0.4021      9.7573
H      3.1512      6.8590      9.2881
C     16.6522     11.0785     17.4196
C     -2.8040      8.2777      5.2833
O      2.1131      8.4490      4.8396
C     -1.5610      7.8933      7.1489
C      9.1364      7.7867     11.7639
C     20.5459      7.7724     12.8702
C      6.5971      6.8007     -0.8314
H      5.2117      4.3565      1.5974
H     17.3581      9.5663     14.1485
H      1.5895     -1.6562      5.3830
H     -5.6223      6.2133      8.7545
C      7.8949      2.7644      9.1380
H      0.6736      1.3600      1.4833
C      7.3468      6.4516     10.9871
C      8.0570      5.7493      3.3040
H      7.9874      7.3282      2.0119
C     -0.9593      6.6310      5.0972
H     16.2508      8.8387     21.1404
H     16.4490     10.7636     15.2489
H      3.1527      5.6794      0.5618
C      9.6762     -1.7554      7.3272
C      6.3124      4.6580      9.3247
C     15.9665      7.5131     17.8990
C      5.0772      5.1562     -0.4082
C     17.5995      8.8822     14.8072
H     -3.0755      7.2011      5.1872
H      8.3006      7.9333      3.7706
H      3.4129      0.6372     10.4166
H     18.3576     11.7906     16.5560
C     -0.3509      3.2459      8.2604
H     19.8282     10.5273     15.2908
C     12.7351      8.6999     12.7065
C      1.4609      1.7951      7.9824
H     11.2059      6.7555     10.5263
C     -0.5288      6.0858      1.2053
H      5.6281      7.1086     -1.0104
H     19.0034      9.2656     12.9955
C     10.4873      7.3088     12.4055
O     15.2018     10.3513     13.6702
C      6.6341     -4.2636      8.4355
C     16.5387      8.4941     20.2626
C      3.8130      1.4160      9.5622
C      2.7365      1.1965      5.0329
H     11.2573     10.5458     15.3311
H      5.6875     -0.5966      7.4206
H      2.4010      4.4671      9.2296
C      4.3525      3.5384      3.0245
C     10.9594      8.4786     13.5884
C     11.6180      6.6846     11.6944
H     -2.1182     11.2179      5.3678
C      5.4506      2.4726      4.9139
H     17.7792     13.1861     17.1414
C      2.1928     -0.4220      8.7166
C      4.5436     -1.9525      8.4271
C     -2.1020      5.0483      3.7084
C     16.1598      9.6304     19.5291
C      2.8312      3.8407      2.5264
C      5.1697     -6.0139      9.2762
H      1.7973     -1.2387      9.3578
H     15.2846      7.9223     13.1766
H      9.6098      5.3683      4.7550
O      5.7469      6.5923      6.5284
C      0.8065      8.0766      4.5539
H      4.0107     -2.4290      7.4057
C     -2.6145      8.7293      3.7551
C     -2.1632      7.4688      2.9526
H      7.3631     -4.0972      9.5567
H      8.6237      3.6083      3.3691
C     -2.5032      8.5986      7.9662
H      2.3958      3.8392      4.7268
H     12.4694     10.1120     11.0279
H      3.9212      3.9515      0.5228
H     -0.1784      4.4985      8.2150
C      3.4415      1.5299      2.4222
C     -0.2738      8.5044      2.1840
O      4.8298      3.7685      0.0666
O      7.8223      3.9299     10.9011
C     -0.2136      3.1465      1.2773
C      0.3834      3.4790      3.8198
C      6.9928     -2.1209      7.4598
H      9.7902     -2.4017      8.2115
H     15.3885     10.3343     19.2958
H     -0.9805      9.4756      4.4477
H     13.0300      8.1151     10.7621
C      5.8744     -1.3657      7.9614
C      0.6980      7.0326      6.5997
C     14.5144      7.6128     13.9044
H     15.3647      8.8062     15.8549
C      0.5949      7.5370      2.9927
H      8.3908      0.6338      9.2305
C      2.0601      0.3040      4.1624
C      0.4014      2.2563      7.3722
C     -2.5192     10.6442      6.1925
C     -2.4928      3.4666      5.8559
C     17.7755     12.2349     17.3484
C      3.2282      4.0688      9.8025
C      0.9978      2.2969      1.4282
C     -1.3072      7.6591      1.4837
C      3.7493     -0.7528      8.7391
N      1.6432     -1.0600      4.4555
C      3.6266      1.6553      0.9183
O     16.9985      6.4223     15.1696
C      9.5852      6.3226      0.6538
H     18.2089     10.5256     19.0196
C     -2.6238      4.2249      2.6695
C     -2.5647      7.6332      9.0819
H      8.0311      2.3887      8.2055
H      1.7715      1.1038      6.8959
H      8.3111      3.2705     11.1662
H      8.0303     -3.9683      6.7331
C     10.5394      9.8316     13.6083
H      4.7287     -6.5265      8.2830
H      1.6573      7.6170      9.0777
H     -3.6185      3.3546      6.2224
H     -0.3869      9.4787      2.6368
H      4.5601      2.3090      0.9672
H     -0.5794      2.9233      9.3565
C     14.8654      7.6842     15.4678
H      3.4613      0.7540      0.2392
C     13.0607      9.7586     11.7968
H      0.5789     -0.9764      3.9234
C      4.3126      8.0491      4.2747
C      7.8512      7.1930      3.1926
C     20.1963      9.9235     14.4363
C     18.7866      7.9957     14.7434
C      4.2816      6.1063      6.4063
C      1.9353      5.1128      2.3000
C      6.2836      5.8110      0.2195
C      5.6445      7.6121      4.2617
C      8.2390      6.8000      0.8973
H     13.0301     10.4618     12.5473
C      4.1182      4.8425      7.4835
C      1.9952      5.2143      0.7305
H     -2.4867      5.8879      6.7016
C      6.4908      7.0978      5.4435
H      2.3377      2.1723      5.0556
H     -2.9925      4.9231      1.9302
H      1.4053      2.6095      0.5006
C      7.3295      5.5475      0.9606
H     -0.1841      2.8642      3.1752
O      7.6148      7.6365      5.5947
H      9.3303      8.8334     11.2674
H     21.0762      9.5892     14.9277
H      1.5508      3.0151      3.4458
H     10.0299     11.2147     15.2255
H      1.4635      4.9165     -1.0347
H      8.3855      1.9971      9.6799
H      4.8249      5.1600      4.5343
C     12.7805      7.5617     11.5638
C     15.8191      6.5201     15.8556
H      2.1335      5.8994      8.9415
C     -1.8483      4.4590      5.1804
C      0.4408      6.7586      5.1929
H     17.7443      8.4940     20.8297
H      3.8234      2.0759      4.6210
C      1.5514      5.5343      4.5923
H      1.8030     -0.1821      2.3410
H     15.0512     10.3922     15.6806
H      0.0080      7.7908      8.5253
C     -4.8962      7.0663      8.4708
C      4.5498      0.9464      8.3979
C      6.3148      7.5582      3.0286
C     -3.6445      9.6565      5.7095
C     -0.2735      6.1522      2.6219
C     -1.3636      6.2956      3.7069
H      2.7055      3.7245     -0.2105
H      4.9321      5.5766     -1.6092
H     -2.5732      2.7722      6.8632
C      2.0575      1.0406      9.1843
H     -1.4467      9.9499      6.6564
C      0.7442      5.1146      3.3873
C      5.5747      3.7168      2.3581
H     -1.5257      3.2633      8.0810
H      6.1918     -4.1903      6.5151
C      7.4094      4.0065      9.6856
H     10.2364     -0.8696      7.8407
C      2.2432      6.7966      8.6309
C     -1.5047      5.6731      6.0097
C      2.3415      0.6930      2.8734
C      1.2333      4.6130      5.7332
C      2.0702      6.5461      7.1928
C      1.5263      4.1069     -0.2374
H     -0.5203      4.9395      1.0099
H      4.1447      1.2908      3.0998
H     -1.8489      7.2636      9.7250
H      3.1661      2.5625      0.5575
H     -4.5503      7.5013      7.3718
H      6.6151      0.9485      3.8292
C     -0.4823      9.0984      5.3468
C     -3.7171      7.2000      9.3941
H      4.3751      6.2316     -0.3478
H     -3.1089      9.2892      3.0196
C      8.1424     -1.3473      7.6550
H     -2.6027      3.1773      2.8202
H     -4.3381     10.4276      5.3060
C     -0.0482      7.8292      7.4845
C      0.4783      3.3921      5.2482
O      8.6742      5.1393      4.4440
C     -1.5414      8.0598      5.7326
C      6.3655      1.2483      6.8446
C      5.4318      2.0635      6.3055
C      3.3231      0.8459      6.3043
H      7.1178      0.9542      6.2064
H      6.6502     -0.8632      9.8755
H     18.2385     12.3552     18.4861
C      1.7942      4.8148      6.9864
H     -0.3167      4.2457      1.9310
C      4.0362      5.5184      5.0384
C      3.6468      2.8712      9.0974
H     20.2333     10.7259     13.5563
H      0.8457      6.1565     -0.4108
C      8.5567      6.9006     10.7353
H      3.2825      3.7109     10.9395
H     11.8434      5.5298     11.9578
C      4.3840      3.1700      4.4012
C     17.2305     10.0411     18.3682
C      6.5512     -0.2343      9.1118
C      7.0622     -3.7124      7.3786
C      5.7092      4.1024      8.0563
C      6.1536      1.0315      8.3517
H     -0.8644      3.7925      5.5954
H     10.0634     10.4398     12.7428
H     10.3968      6.3278      1.4225
C     14.4161      9.9362     14.3545
H      4.2407      4.8040      9.9675
H     -1.7030      9.2021      3.7306
