261

C     19.6152      8.6550     13.8197
N     -2.1851     10.8435      1.2583
C      3.9800      1.6235      7.1157
C      2.4495      2.4974      1.9682
C      7.4956      4.7162      1.9436
H     -2.9308      6.7234      2.1524
C      7.5029      3.3207      2.2135
C      3.3644      3.8062      5.2701
C     16.1515      6.9325     19.7041
C      6.2550      1.7775      4.0019
C     -7.0887      8.1503      9.5626
C     13.9134      8.5704     13.5450
N     -0.0036      2.8093      6.1112
C      0.1109      5.7427      0.4478
O     -1.2906      2.4699      1.2561
C      3.1550      4.0187      6.8959
H     -0.2609      5.8767     -0.5100
C     15.8849      6.1113     17.1983
C     16.3914     10.2031     16.2362
H      1.2830      0.6097      9.9915
H     -3.5572      2.9291      5.2678
H     17.8943      6.8493     15.5985
C     16.7170      8.6994     16.0899
H     -8.3141      6.7501     10.1444
H     -7.2570      8.7426     10.6478
H     -0.7532      5.3866      6.4972
H      8.4044      2.8967      8.2776
C      3.0095      2.7283      7.5704
H      7.0798      1.1244      4.4360
O     14.2089     10.3236     15.0742
C     -5.0377     12.7138      8.4634
C      6.0880      5.8733      9.6119
H      2.4184     -0.3059      6.3628
H      3.6143      5.4148      8.1643
C      6.5259      2.9778      3.1768
H      5.8631      3.5339      7.4834
H      0.9876      6.3067      9.1846
C     17.3163     10.6413     17.3552
C     -2.8998      8.5560      4.7712
O     14.9853      8.5241     17.7788
C     -1.3833      8.4999      6.9429
C      8.5658      8.1427     11.8005
C     20.3943      7.6681     12.8366
C      6.3550      6.8906     -0.9893
H      5.2843      4.2448      1.9604
H     17.3203      9.4159     14.0036
H      2.1184     -1.5618      5.5239
H     -3.4747      6.3996      7.7217
H     15.0910     11.4046     13.3854
C      7.9359      2.5395      9.0370
H      0.8687      1.1860      1.6307
C      6.9768      6.7939     10.7818
C      7.6506      5.4864      3.0812
H      7.9169      7.3265      1.7034
C     -0.9474      6.9874      5.1180
H     15.7401      8.4574     21.0351
H      3.1563     -0.8607      2.1616
C     -3.3957     11.8475      7.0190
C      6.1771      4.5436      9.0479
C     16.1004      7.2552     18.0934
C      4.8440      5.0715     -0.5175
C     17.7448      8.9261     15.0060
H      8.0589      8.0007      3.6588
H      3.3652      1.9238     10.7727
H     -7.1401     12.7062      9.8337
H     17.6301     12.5112     16.7047
C     -0.1091      3.5986      8.7239
H     21.5698      9.4443     13.8010
C     13.1830      8.7765     12.1813
C      1.3608      1.7267      8.1965
H     -1.6798      8.4216      9.2807
C     -0.7058      6.2950      1.3739
H      5.3803      6.9815     -1.1919
C     10.1891      7.6849     12.1952
O     15.1578     10.4568     12.9184
C     -6.6232      8.6174      8.4405
C     16.5447      8.2703     20.2797
C      3.5914      1.7956      9.5995
C      2.5134      1.3807      4.9576
H     -2.8688     11.3897      1.4568
H     -7.3416     12.1553      7.1190
H      1.7540      4.5949      9.4016
C      4.0382      3.6283      3.1742
H     -3.4521      8.2138      6.9887
C     -2.1709      8.4109      0.4200
C     11.2620      7.2612     11.4038
H     -1.7780     10.6744      6.1624
C      5.2775      2.2597      4.9794
H      3.9684     -0.0957      6.0483
C      2.5423     -0.3584      9.4340
C     -8.4301     11.1018      8.5941
C     -2.4447      5.4721      3.8196
C     16.4050      9.3817     19.4270
C      2.8342      3.6602      2.2651
C     -7.7684      6.9410      9.2233
H     16.1930      7.7617     13.5902
H     -3.3469      5.8311      4.1491
H      2.8527      5.6060     -0.6392
O      5.7465      6.2711      6.4873
C      0.8755      8.3450      4.3138
H     -9.0449     10.2942      7.9017
C     -2.5606      8.7674      3.4057
C     -2.2783      7.5830      2.7365
H     -5.9306      7.9541      7.7522
H      8.4380      2.8597      1.7315
C     -2.8185      8.5888      7.7238
H      2.2922      3.7792      4.8619
H     13.0555      9.6999     10.4254
H      4.3008      3.5917      0.8984
H     -0.0556      4.7234      8.5031
C      3.5092      1.3722      2.2140
C     -0.2027      8.4155      1.6406
O      4.3596      3.9188     -0.1107
O      7.0502      4.0452     11.0903
C     -0.0965      3.0521      1.3589
C      0.0526      3.7959      3.6056
C     -5.7876     10.6451      7.5052
H     -3.3167      9.7634      7.6952
H     16.2513     10.6518     19.5024
H     -0.5764     10.0605      4.0645
H     12.9638      7.6513     10.4324
O      0.5633      9.7654      5.8884
C     -7.0675     11.5557      7.9666
C      0.6636      7.2059      6.8932
C     15.1560      7.5292     13.8482
H     15.7691      8.4975     15.5712
C      0.7212      7.7880      2.8567
H     -4.4915     13.5427      8.6670
C      2.3168      0.1624      4.1700
C      0.2160      2.5343      7.7743
C     -2.8664     10.8205      6.0576
C     -2.4979      3.4261      5.4946
C     17.7887     11.7979     17.6925
C      2.8293      4.1958      9.9148
C      1.1257      2.0891      1.3714
C     -1.3442      7.6488      1.4704
C      3.8936     -0.3426      8.9247
N      2.1342     -1.0479      4.5450
C      4.1995      0.8709      0.8069
O     16.9866      6.4041     15.1431
C      9.6202      6.5961      0.1732
H     18.5417      9.0669     19.0272
H     -0.6352      1.8335      7.8525
C     -2.4881      4.7401      2.4867
C     -2.7970      8.5457      9.1798
H      8.1969      2.3168     10.0685
H      1.1584      0.9959      7.2050
H      6.4967      4.3578     11.8534
H     -5.7522     10.2064      9.6218
C     -2.5310      9.7625      0.4769
H     -8.0393      7.1481      8.2514
H      2.6940      6.2913      9.0612
H     -0.2670      9.5536      1.9311
H     14.3200     10.5730     11.4947
H      4.0587     -0.1578      0.6122
H      0.6062      3.3003      9.4430
C     14.9512      7.5882     15.2477
H      3.9116      1.3695     -0.3284
C     13.4032      9.8359     11.4670
H     15.4844     10.2625     16.9149
C      4.2251      8.1199      4.4333
C      7.7250      7.0753      2.9932
C     20.5081      9.6284     14.1291
C     18.8199      8.1537     14.9134
C      4.3465      5.7149      6.3168
C      1.7640      4.9156      2.2706
C      6.2882      5.4459     -0.3290
C      5.7661      7.5373      4.3700
C      8.2857      6.5069      0.4016
C      4.3663      4.8513      7.4420
C      1.3417      4.9506      0.8043
H     -2.4520      6.1678      6.1970
C      6.4583      6.8890      5.4176
H     -1.6231      2.9381      5.4715
H     -3.4723      4.5856      2.1294
H      1.2668      1.6771      0.3266
C      7.1913      5.3262      0.7277
H     -0.6359      3.3881      2.8968
H      8.9216      9.2987     11.3156
H      0.8719      2.7361      3.8281
H     -2.0861     10.4295      2.2169
H      2.1656      3.5637     -0.7005
H      4.8586      5.7090      4.2334
C     12.4057      7.8991     11.3063
C     15.6665      6.1980     15.7013
H      1.5768      7.7349      9.0866
C     -2.1634      4.6152      5.0846
C      0.5770      7.0781      5.2993
H      1.6243      1.5774      5.6478
C      1.3929      5.8051      4.6619
H      2.0812     -1.3691     10.2469
H      1.6783     -0.0378      2.3936
H     16.7732     10.8661     15.4007
H     -0.1000      7.4965      8.9616
C     -4.1387      6.3161      8.7078
C      4.3929      0.9797      8.4590
C      6.2298      7.2775      3.0948
C     -3.4379      9.8448      5.2217
C     -0.0850      6.3721      2.7670
C     -1.3822      6.6024      3.7111
H      1.2812      4.5724     -1.0476
H      4.8461      4.8468     -1.5837
H     -2.4802      2.9834      6.6546
C      2.1644      1.0356      9.4877
H     -0.7402      9.4287      7.2064
C      0.7153      5.1439      3.3652
C      5.3689      3.9510      2.8440
H      1.5582      4.6388      7.9452
H     -4.6235      9.0555      8.5995
C      6.7129      3.4173      9.8826
H     -2.9235     12.8105      6.7808
H     -6.2731     10.4842      6.5556
C      1.8666      6.7482      8.7248
C     -1.3678      5.7403      5.9975
C      2.8318      0.1399      2.6670
C      1.1190      4.8031      5.7061
C      1.8573      6.4757      7.2251
C      2.1299      4.6133     -0.4886
H      4.2295      1.3600      3.1055
H     -3.1268      9.4187      9.6091
H     -4.5401      5.2844      9.2422
H      6.0389      0.7849      3.5100
C     -0.1038      9.3772      4.8328
C     -3.8929      7.2540      9.5103
H      4.3335      5.9527      0.3284
H     -3.3296      9.2657      2.8154
C     -4.5747     11.6649      7.6461
H     -2.0348      3.9490      2.0921
H     -4.4739      9.7842      5.3907
H      7.3398      1.6759      8.9329
C     -0.4037      7.4291      7.7075
C      0.2008      3.7507      5.3803
O      8.1541      5.0093      4.1343
C     -1.4868      8.3960      5.3912
C     -6.8122     13.8124      6.9456
C      5.2191      1.9369      6.3161
C      3.2753      0.6500      6.1813
H     -5.5931     13.5213      6.8428
H      4.6933      3.1364      8.5246
H      0.9553      8.9780      6.3358
H     18.7913     12.4458     18.0480
C      1.6465      4.9434      6.9663
H     -0.0895      4.1245      1.4121
C      3.9918      5.2437      4.9158
C      3.2874      3.1054      8.9990
H     20.7811      9.8664     15.0360
C      8.2334      7.3045     10.6538
H      2.3958      3.6294     10.6653
H     11.0312      6.6162     10.5411
H     -7.4526     13.0275      6.7295
C      3.7781      2.6778      4.4335
C     17.4547      9.4889     18.3439
C     -6.5707     12.7371      8.8357
C     -5.5585      9.6338      8.6759
C      5.2731      4.0045      7.9754
C     -7.0829     13.9319      8.4199
H     18.9076      9.1399     13.0229
H      9.9807      5.5054      0.1010
C     14.4640      9.8761     13.8809
H      3.7665      4.7041     10.2927
H     -1.9865      9.6528      3.2552
261

C     19.7232      8.5776     13.5913
N     -2.1929     10.8399      1.3953
C      3.8382      1.6762      7.1157
C      2.3071      2.5007      1.8821
C      7.2728      4.7966      1.9782
C      7.5101      3.3243      2.2987
C      3.3754      3.8131      5.3041
C     16.1293      7.1480     19.5172
C      6.3326      1.9706      3.9920
C     -7.2328      8.3686      9.4734
C     14.0207      8.5968     13.4454
N      0.1854      2.7411      6.2893
C     -0.0748      5.7103      0.3966
O     -1.3882      2.5977      1.3847
C      3.0030      4.0391      6.7830
H     -0.3263      5.7866     -0.6503
C     15.7816      6.1158     17.3075
C     16.4996     10.1348     16.3107
H      1.5881      1.3011     10.3769
H     -3.3793      3.5384      4.7649
H     17.6794      5.8711     15.7419
C     16.7583      8.7642     16.0958
H     -8.6083      6.8337     10.5191
H     -6.9176      8.9188     10.2716
H     -1.2553      5.4319      6.9130
H      8.2660      2.6100      8.0969
C      2.8852      2.7237      7.5207
H      7.2522      1.2059      3.7683
O     14.2354     10.3238     15.0342
C     -4.9101     12.5820      8.4024
C      6.1348      5.9328      9.4125
H      3.8719      5.4212      8.4008
C      6.5249      3.1923      3.2774
H      5.2431      3.1014      7.2606
H      1.1119      5.9607      8.8708
C     17.2612     10.6095     17.4056
C     -2.7383      8.7150      4.9752
O     15.0222      8.7422     17.7253
C     -1.4430      8.3129      7.0795
C      8.6286      8.2872     11.8047
C     20.3598      7.6156     12.7246
C      6.5484      6.7440     -0.8326
H      5.0614      3.9141      1.8760
H     18.0592     10.0151     14.8006
H      1.9219     -1.3207      5.4900
H     -3.4647      6.4857      7.7828
H     15.8291     10.9040     13.6511
C      7.8456      2.5842      9.1937
H      0.4940      1.4559      2.1531
C      6.9302      6.6087     10.6888
C      7.5906      5.5454      3.0851
H      8.4079      7.4636      2.4372
C     -0.7732      7.0285      5.2638
H     15.6558      8.4521     20.9939
H      3.4124     -0.6969      2.5349
C     -3.4529     11.5604      7.1110
C      6.0901      4.4911      8.9026
C     15.9971      7.3779     17.9578
C      4.9724      4.9280     -0.6319
C     17.9209      8.9508     15.1933
H     -3.1657      7.6055      5.5026
H      8.5520      7.3592      3.9902
H      3.0735      2.1102     10.8148
H     -6.5906     12.0684      9.8975
H     17.6144     12.6978     17.0127
C     -0.0808      3.5610      8.7798
H     21.6735      8.8947     14.3226
C     13.1664      8.8726     12.1825
C      1.4850      1.9478      7.9717
H     -1.9541      7.6738      9.4256
C     -0.7260      6.2492      1.4345
H      5.3873      6.8275     -0.7960
C      9.9607      7.6860     12.4563
O     15.2541     10.4465     13.0738
C     -6.3545      8.6295      8.5244
C     16.3979      8.4532     20.1716
C      3.2971      1.7632      9.6612
C      2.6000      1.3928      4.9727
H     -2.9767     10.9405      2.0475
H     -7.4630     11.5326      6.8303
H      2.3503      4.9767      9.7490
C      4.1897      3.5818      3.1766
H     -3.5968      8.0884      7.4933
C     -2.2499      8.5484      0.4939
C     11.1136      7.4443     11.3283
H     -1.7494     10.3157      6.4098
C      5.1540      2.2037      4.9687
H      3.9985     -0.1049      5.7732
C      2.3403     -0.1439      9.4245
C     -8.3282     11.1764      8.6314
C     -2.4821      5.4131      3.7888
C     16.5307      9.5697     19.3439
C      2.7368      3.6222      2.4596
C     -7.9697      6.9970      9.4506
H     15.5928      7.8104     12.9595
H     -3.1692      6.2668      3.6981
H      2.6460      4.8879     -0.8432
O      5.7683      6.1699      6.3751
C      0.8456      8.1570      4.2939
H     -8.8021     10.4717      7.6427
C     -2.7951      8.5647      3.4099
C     -1.9872      7.5654      2.6376
H     -6.3710      7.6740      7.8308
H      8.1125      2.3770      1.5617
C     -2.7543      8.6692      7.7040
H      2.1979      3.7601      4.8668
H     12.6812     10.1203     10.6164
H      4.2884      3.9600      0.8007
C      3.5862      1.4102      2.0614
C     -0.0334      8.4404      1.5857
O      4.1743      3.7307     -0.1382
O      6.9773      4.0099     11.1869
C     -0.1681      2.8932      1.4188
C      0.3157      3.6563      3.9338
C     -5.7882     10.6482      7.4978
H     -2.6736      9.6763      7.8471
H     16.6289     10.5776     19.2905
H     -0.4415     10.1972      3.7296
H     13.2058      7.8008     10.5879
O      0.5624      9.7957      5.9121
C     -7.0987     11.3994      7.9709
C      0.7622      7.3485      6.6983
C     14.8950      7.3770     13.6599
H     15.9221      8.4218     15.5609
C      0.7287      7.6847      2.8551
H     -4.1538     13.0975      8.9125
C      2.3806      0.1720      3.9066
C      0.2227      2.7000      7.6125
C     -2.7184     10.8349      5.9853
C     -2.5610      3.4142      5.3008
C     17.7188     11.8856     17.6471
C      2.8146      4.1521      9.9018
C      0.9506      2.0422      1.3512
C     -1.2413      7.6731      1.2451
C      3.7264     -0.5244      8.9479
N      2.1420     -1.0215      4.5539
C      4.4210      1.1178      0.9392
O     16.8540      6.1989     15.0520
C      9.4643      6.1675      0.3965
H     18.4065      9.1209     18.6350
H     -0.3154      1.9137      7.9804
C     -2.5504      4.5396      2.6715
C     -2.7133      8.3748      9.1870
H      8.7455      2.1128      9.7160
H      1.4051      1.3849      7.1042
H      6.5553      4.9575     11.3654
H     -5.6673     10.3077      9.5102
C     -2.4354      9.8625      0.5634
H     -8.7230      7.0293      8.6241
H      2.6165      6.3451      9.3993
H     -0.3288      9.4166      2.0997
H     14.2399     10.5807     11.4019
H      3.8672     -0.0451      0.7725
H      0.7799      3.7796      9.0751
C     15.0487      7.3636     15.1088
H      4.4339      1.8372     -0.0713
C     13.2330      9.9521     11.5289
H     15.4851     10.5481     16.0868
C      4.2522      8.0112      4.4238
C      7.7101      7.0662      3.1551
C     20.7418      9.6150     13.9681
C     18.9388      8.1444     14.8434
C      4.4266      5.7937      6.3549
C      1.9150      4.8817      2.1979
C      6.2765      5.5472     -0.1587
C      5.5989      7.3357      4.2529
C      8.2472      6.5107      0.4871
C      4.1285      4.7264      7.4988
C      1.1784      4.9558      0.6695
C      6.4478      6.8008      5.3886
H     -1.8327      2.4052      4.9278
H     -3.7028      4.1205      2.7544
H      1.3039      1.8177      0.3329
C      7.2627      5.4055      0.7307
H     -0.4640      2.9712      3.5792
H      8.6093      9.4204     12.0791
H      1.1649      3.0542      3.3931
H     -1.5201     11.2408      2.0246
H      2.4971      3.4482     -0.1820
H      5.1713      4.9309      4.5007
C     12.4114      7.8877     11.5024
H      6.6716      5.9820      4.9044
C     15.7829      6.1889     15.7445
H      1.8180      7.6744      9.0696
C     -2.1175      4.9118      5.0866
C      0.6487      7.0443      5.3348
H     17.4722      8.6056     20.6506
H      1.6578      2.1997      4.9942
C      1.4680      5.7893      4.7029
H      1.4349     -0.6489      9.8549
H      2.0561     -0.1447      1.6932
H     16.9553     10.8771     15.5947
H     -0.6429      7.1707      8.5187
C     -3.9481      6.4244      8.7489
C      4.1845      1.2015      8.5318
C      6.3150      7.4607      3.0466
C     -3.4119     10.0018      5.1375
C     -0.1220      6.3835      2.8034
C     -1.4400      6.6053      3.6634
H      1.3324      4.2799     -1.2312
H      5.0269      5.0383     -1.7872
H     -2.5562      3.1274      6.1379
C      2.0312      1.2397      9.2392
H     -0.8340      9.2824      7.8305
C      0.8211      5.0384      3.5080
C      5.4345      3.9479      2.8143
H      1.1821      4.4363      7.4914
H     -4.4663      9.6823      8.5254
C      6.7632      3.4650      9.9827
H     -3.0188     12.6066      7.6438
H     -6.2930     10.0889      6.5017
C      1.8778      6.6893      8.7827
C     -1.3213      5.7630      5.9661
C      2.7523      0.2036      2.5090
C      1.2324      4.6537      5.5541
C      1.9697      6.5731      7.3440
C      1.9710      4.3775     -0.3725
H      4.3672      1.7211      2.7383
H     -2.1756      9.1510      9.7006
H      5.5321      0.6613      1.6034
H     -4.6742      5.5128      8.7619
H      5.6729      1.2875      3.4310
C     -0.2832      9.3353      4.7317
C     -4.0215      7.5535      9.4982
H      4.2454      5.7764     -0.4076
H     -3.8016      9.0869      2.8126
C     -4.7792     11.4881      7.4892
H     -1.7349      3.7104      2.8043
H     -4.5144     10.0387      5.5956
H      7.0942      1.9747      8.4841
C     -0.5218      7.3973      7.3765
C      0.1733      3.8587      5.4169
O      7.9534      5.0914      4.1674
C     -1.2714      8.5112      5.3622
C     -6.8775     14.0092      6.9566
C      5.1328      1.8338      6.2866
C      3.2039      0.6270      6.1231
H     -5.7156     14.0458      6.8463
H      4.5118      3.3974      8.8675
H      0.9257      8.8178      6.3988
C      1.5794      5.0633      6.9508
H     -0.0809      3.7728      1.9359
C      4.0291      5.3124      5.0330
C      3.4201      3.2169      8.8154
H     20.4271     10.2696     14.7073
C      8.1156      7.4535     10.6358
H      2.2279      3.5280     10.4312
H     10.9435      6.6343     10.7917
H     -7.2242     13.1177      6.9733
C      3.7921      2.5331      4.5843
C     17.5496      9.4462     18.1980
C     -6.5000     12.4321      8.8351
C     -5.4205      9.6856      8.4968
C      5.3599      3.9102      7.9673
C     -7.1626     13.9182      8.4074
H     -3.4107      9.8225      0.1461
H     18.9152      8.8737     13.0463
H     10.4588      5.4658      0.6026
C     14.4335      9.8223     13.9540
H      3.5991      4.3702     10.3861
H     -1.9843      9.4263      3.3939
