266

C      6.9314      8.5611     13.5490
N     -2.7392     10.4545     14.6344
C      3.6935      1.5016     20.0969
C      2.2438      2.3707     15.1854
C      7.6579      4.5485     14.6688
H      9.9553      6.2449      2.9299
C      7.5604      3.3975     15.4065
C      3.3453      4.0865     18.3987
C      3.3655      7.5529     19.4863
C      6.2831     15.2580      4.1726
C      5.9844      8.3429      8.3962
C      0.5598      8.6971     13.7673
N      0.1761     15.7916      6.1655
C      0.4928      5.8631     13.8590
O     -1.2819      2.5128     14.7775
C      3.0160      4.2081     19.7536
H      0.9172      7.4958     11.1778
C      2.8594      6.6048     17.1463
C      3.9314     10.3066     16.2121
H     10.5221      2.5582      7.0392
H      5.2423      6.2012     15.1296
C      4.1496      8.9416     15.7767
H      4.6363      7.1574      9.6567
H      2.0003     17.6569      9.6215
H      0.0543     18.1430      6.2996
H      5.6101     14.1674      9.7650
C      2.9740      2.8105     20.4779
H      7.0730     15.0296      4.5989
O      1.3383     10.5679     15.4014
C      7.4922     11.9121      9.4397
C      6.2826      6.0848      9.4207
H      3.2906     -0.4164     19.0678
H      4.0691      5.0793      8.4134
C      6.2554      3.2317     15.8652
H      5.9408      3.6522      7.0877
H      3.4589     11.7217      9.4061
H      2.4986     20.6255      9.4132
C      4.6012     10.8080     17.2979
C     10.2792      8.9725      5.2671
O      2.1308     21.9344      4.5200
C     11.7704      8.3386      7.1852
C      8.8218      7.9649     11.7805
C      7.7400      7.4083     12.7801
C      6.4519      6.9114     11.6463
H      5.5363      3.4905     14.1460
H      4.8363      9.4750     13.6343
H      1.6763     -0.7406     18.4607
H      7.8538      6.5674      8.2082
C      8.0883      3.2559      8.8551
H      0.5627      1.2243     15.1102
C      7.1969      6.5383     10.4876
C      7.9292      5.6041     15.4638
H      8.0131      7.6011     14.5719
C     11.9585      6.9490      5.4383
H      3.4180      8.6210     21.2583
H      2.7079      5.8213     13.5578
C      9.1222     11.1937      7.7561
C      6.2157      4.7548      9.1161
C      3.0353      7.8745     18.0273
C      4.9383      5.0456     11.8954
C      4.9301      8.8615     14.5979
H      9.6268      8.2537      5.9442
H      8.4502      7.0390     16.1832
H      3.2215     14.2503     10.5793
H      5.2017     10.1873      8.4430
H     -2.1189      2.7280     14.0344
H      5.6221     12.3371     16.9220
C     -0.6902     16.1525      8.4135
H      8.1225     10.4230     13.6720
C      0.4095      9.0128     12.3474
C      1.3866     15.0337      7.8477
H     -1.8068      5.7904     11.2559
C     -0.7424      6.0695     14.7342
H      5.3515      7.4448     11.1815
H     10.9585      2.8998      5.6460
H      6.2833      9.2138     12.9442
C     -2.6894      7.2188     12.5413
O      2.7580      9.9226     13.7586
C      7.3030      8.3965      7.6205
C      3.6245      8.7963     20.3220
C      3.1164     14.3847      9.5669
C      2.8273      1.2773     17.5448
H     -3.7404     11.1139     14.1133
H      6.3018     13.2143      7.0656
H      3.2180     19.2538      9.0246
C      4.0975      3.4275     16.0943
C     -2.3145      8.1586     13.6978
C     -1.3865      6.7559     11.9189
C      5.2110     15.3418      5.4013
H      4.4261     13.0242     17.6921
C      1.6705     12.7276      8.7022
C      4.4483     11.5682      7.4363
C     10.9891      4.9936      4.4754
C      3.5920     10.0093     19.4825
C      2.8287      3.6139     15.5268
C      5.4418      7.0164      8.7417
H      1.0898     11.9668      9.1950
H      1.7707      6.8987     12.6062
H      9.0326      5.2530     16.8851
H      2.1297      3.0302     13.2921
O      5.5575      6.8727     19.3059
C      0.8220     21.3140      4.5134
H      4.5246     12.2971      6.6153
C     10.1850      8.5946      3.7539
C     10.6445      7.2330      3.2230
H      7.9232      9.8938      9.0128
H      8.2879      3.4130     16.2471
C     10.6528      8.4690      7.8135
H      2.5646      3.8885     17.5950
H      4.0089      4.5841     13.6037
H     -0.5016     15.6145      9.4247
C      3.1956      1.2310     14.7908
C     -0.1808     21.3335      2.0342
O      4.0875      4.0482     12.7062
O      7.4162      3.8110     10.9950
C      0.0421      2.8794     14.2550
C      0.2276     16.8122      3.8442
C      6.7262     10.7423      7.3877
H      2.7288     10.7518     19.3355
H     -0.4974     22.9014      4.0384
H     -0.4758      8.0964     10.4710
O      0.1917     23.0329      5.7448
C      5.5325     11.1223      8.0035
C     13.8393      7.4559      6.6846
C      1.2010      7.2260     13.7384
H      2.9515      8.2609     15.3241
C      0.5864     20.5411      3.1036
H      8.3648     12.4956      9.9036
C      2.1655      0.1944     16.6124
C      0.1803     15.4283      7.6021
C      9.9101     10.8920      6.6370
C     10.6552      3.4845      6.3092
C      5.1070     12.0780     17.6837
C      3.0828     16.9924      9.7227
C      1.0084      1.9702     14.6145
C     -1.3894      7.6153     14.7307
C      3.0105     12.2177      8.4889
N      1.6118     -0.9966     17.5073
C      3.5860      1.3879     13.3794
O      4.2573      5.7979     14.8310
C      9.4741      5.9292     13.3098
H      5.2498      8.9749     18.7465
C      9.8394      4.5179      3.5182
C     10.1094      8.1826      9.2693
H      7.8800      3.7256      7.7666
H      1.7637      0.5817     19.2206
H      8.2981      3.5087     11.1252
H      8.3131      9.4848      6.6398
C     -2.8231      9.3483     13.8645
H      4.8917      6.5349      7.9956
H      1.4940     19.2799      8.8816
H     -0.4088     22.3149      2.3989
H      0.5185      9.8502     10.5371
H      4.4536      0.7386     13.4739
H     -1.6441     15.7315      8.2807
C      2.1802      7.2036     14.9189
H      3.0143      1.0996     12.5843
C      1.1570      9.6884     11.5136
H      7.6589      5.5548     10.6638
H      2.0280     -1.9819     17.4136
C      4.4434      8.2724     17.0013
C      7.6803      7.0719     15.4468
C      7.5030      9.8907     14.2181
C      6.0354      8.1225     14.5331
C      4.2175      6.2263     19.2559
C      2.0971      4.8361     15.3740
C      6.1436      5.7579     12.4251
C      5.5616      7.4049     17.1395
C      8.1391      6.1322     13.2130
H      2.0689     10.2111     11.8749
C      4.4645      5.1038      7.4952
C      1.7678      5.0958     13.9315
H      9.7901      8.9473      7.1811
C      6.4497      7.1455     18.1819
H      2.3382      2.3711     17.3655
H     10.2101      4.1854      2.5208
C      7.0055      5.2410     13.4455
H     -1.0780     16.8648      3.8297
O      7.6259      6.8159     18.1780
H      8.9243      8.8819     12.0158
H      6.7644     10.4375     14.3760
H      0.3777     15.7408      3.3274
H      0.7288      3.7868     12.5182
H      4.4999      5.5720     17.0284
C     -0.2721      7.7305     11.4936
H      6.3447      5.4829      7.1119
C      3.0058      6.0332     15.6277
C     11.2439      4.8166      6.0232
C     13.5348      7.2852      5.3610
H      3.8725      1.3343     17.0245
C      1.6232     18.7741      4.7755
H      0.9560     12.7044      7.9133
H      2.1774     -0.6071     14.7254
H      0.4822     11.3085     15.4363
H     10.8086      7.4627      9.7447
C      8.2148      7.4075      7.7442
C      3.8573     13.5398      8.4926
C      6.1179      7.3270     15.7115
C     10.0855     10.3803      5.3564
C     -0.1383     19.0650      3.2501
C     11.6529      6.2478      4.0978
H     10.0478     11.5086      8.6529
H      2.6169      4.4701     12.2786
H      9.4508      3.9125      6.1791
C      1.7530     14.2563      9.0987
H     10.6283     11.0705      7.1552
C      0.8473     18.0073      3.5744
C      5.2033      3.5323     15.1523
H      1.1943     17.5794      7.9202
H      4.7519      8.8239      8.0060
C      7.4060      4.1016      9.6442
H     -2.0305     11.0624     15.0013
H      7.0782     11.5589      6.8551
C      2.3377     19.9637      8.7092
C     11.7748      5.9933      6.6254
C      2.6092      0.0055     15.3155
C      1.2219     17.9075      5.9032
C      2.2314     19.8386      7.2137
C      1.6859      4.0454     12.9657
H     -1.6118      5.3595     14.3820
H      9.7221      9.2606      9.3187
H      4.2645      2.2544     13.2224
H      8.9563      6.9620      6.9646
H      8.9565      2.6516      9.3819
H     10.8130     11.0265      4.9971
H      6.1375     14.2241      3.8506
C     -0.4897     22.1619      4.8051
C      8.8619      7.7927      9.2490
H      4.0342      5.6930     11.4826
H      9.2114      8.8872      3.3278
C      7.8991     10.9665      8.5789
H      9.8379      3.4894      4.0169
H      9.0580     10.3126      5.0080
C     13.0463      7.7120      7.6287
C      0.5040     16.7896      5.4853
O      7.7786      5.5080     16.7304
C     -1.3914     21.3367      5.6606
C      5.8970     14.2037      7.7290
C      5.0312     14.8472      6.6511
C      2.8834      0.6922     19.0111
H      6.7432     14.8053      7.9460
H      4.5988     16.0040      8.9509
H      0.6235     22.4307      6.4428
H      5.7810     11.9410     18.6381
H     12.7091      7.6804      8.8508
C      1.9352     18.0249      7.2645
H      0.1254      3.7954     14.5978
C      3.9679      5.6209     17.9947
C      3.5143     15.8543      8.9823
H      8.1635      9.5136     15.1085
H      0.1027      5.8503     12.7238
C      8.0574      7.6887     10.3755
H     -1.1148      6.0083     12.7483
C      4.2804      3.1259     17.5484
C      4.5080      9.6833     18.4223
C      5.9745     12.1983      9.4224
C      7.2893      9.4784      6.7061
C      5.8085      4.4840      7.5767
C      5.3771     13.5398      8.9201
H     -0.7517     17.0264      8.2052
H     -3.6875      9.3354     13.4797
H      5.4437     12.0676     10.3736
H      9.6254      4.5885     13.5194
C      1.5086      9.9403     14.3781
H      3.7383     17.8226      9.9630
H     11.1626      9.1718      3.2534
