260

C     19.5410      8.8282     13.4560
N     -2.8945     10.4684      1.8706
C      3.7003      1.4782      7.2460
C      2.1326      2.2392      2.2434
C      7.1302      4.9883      2.1864
H     -3.4080      7.0079      2.5793
C      7.4862      3.5285      2.2249
C      3.4765      4.0161      5.3474
C     16.4813      7.5366     19.3126
C      6.3425      1.8706      4.0463
C     -6.8322      8.2363      8.9341
C     13.6228      8.5672     13.8927
N      0.1427      2.9250      6.2834
C      0.5949      6.1620      0.6482
C      3.5146      3.9482      6.8126
H     13.2565      6.7378     11.0879
C     15.6714      6.2696     17.3347
C     16.6664     10.5292     16.1578
H     -3.0683      3.6708      7.1598
H     17.2498      5.6409     14.3846
C     16.8696      9.0407     15.8988
H     -8.4363      7.2002      9.9857
H    -10.4325     17.4971      9.4865
H     -1.7454      6.4041      7.2139
H     -7.0036     14.3114      9.1992
C      3.0537      2.8099      7.7073
H      7.3033      2.0614      4.7140
C     -5.3436     11.8557      9.2208
C      6.0382      5.8945      9.9323
H      3.3102     -0.1802      5.7767
H      3.8082      5.5477      8.3135
C      6.4664      2.9376      3.0779
H      5.4154      3.0129      7.1129
H     -9.5405     11.5736      9.4518
H      1.9620      8.3895      9.1430
C     17.2039     10.9095     17.2926
C     -2.7304      8.8215      4.9958
O      2.0915      8.6183      4.6475
C     -1.3608      8.1565      6.9442
C      8.6049      8.1239     11.6936
C     20.3451      7.6024     12.8166
C      6.1624      6.9542     -0.8601
H      4.9629      4.3509      1.6905
H     16.9431      9.7876     14.1745
H      2.3944     -0.8435      5.5311
H     -5.2966      6.2001      8.5316
C      7.9454      2.9432      8.8458
H      0.5841      0.6916      2.0147
C      7.0294      6.4381     10.9949
C      7.7785      5.8430      3.0683
H      8.4087      7.9598      1.9497
C     -0.9051      6.8861      5.1678
H     16.9770      8.9283     20.9843
H     16.1952     11.2835     15.5560
H      2.6301      5.4642      0.5912
C     -3.3258     11.1036      7.6814
C      6.3141      4.6254      9.1158
C     16.2217      7.5809     17.7817
C      5.0056      5.1509     -0.5503
C     17.4036      8.9140     14.6760
H     -3.5666      8.2261      5.4782
H      8.2019      8.1383      3.7945
H     -7.4999     10.3016      8.9303
H     18.6095     12.3621     16.7612
C     -0.7894      3.3347      8.6183
H     20.8803      9.8904     14.6595
C     13.4956      8.5673     12.1807
C      1.5162      2.2738      8.1624
H     11.7128      6.1085     12.3970
C     -0.7261      6.2604      1.6487
H     -2.2180      2.6881      6.2450
H     18.6497      9.0211     12.8615
C      9.9265      7.3917     12.5149
O     15.3601     10.3205     13.5316
C     -5.7696      8.3669      8.0016
C     17.1079      8.6986     19.8404
C     -9.7748     14.2292      9.7034
C      2.1540      1.3498      4.9263
H     -2.0430     10.6587      2.5185
H     -7.0392     12.6399      6.9124
H      3.3520      7.3594      9.5597
C      4.0345      3.3189      3.2342
C     -2.6282      8.2567      0.8508
C     11.5174      7.0860     12.0961
C      5.0681      2.0795      5.1670
H     17.1368     13.2117     16.8402
C    -11.0601     12.6527      8.3675
C     -8.7868     11.3830      7.4450
C     -2.1179      4.9865      4.1084
C     16.7095     10.0554     19.3073
C      2.7043      3.4436      2.7399
C     -7.5597      6.9879      9.1946
H    -11.5523     12.0988      9.1481
H     14.8161      7.2292     12.9009
H      8.5952      5.3705      5.0663
O      5.8283      6.6326      6.2274
C      0.8561      8.2455      4.4898
C     -2.6796      8.5659      3.6168
C     -2.3399      7.3419      3.0025
H     -4.6711     10.0068      8.9840
H      8.4232      3.5933      2.6718
C     -2.4851      8.2685      7.7981
H      2.3155      3.9855      5.0757
H      4.0843      3.7273      0.6428
H     -0.5682      2.7779      9.4620
C      3.0607      1.2655      2.1041
C     -0.2465      8.4005      2.0946
O      3.9288      4.1895     -0.1171
O      7.5053      3.9019     10.9086
C     -0.2717      2.8842      1.4484
C      0.1588      4.0029      4.0621
C     -6.1429     10.6968      7.3387
H     15.6109     10.0348     19.1644
H     -0.6133     10.0086      4.4756
H     12.3064      7.6172     10.2263
O      0.6655     10.0986      6.0139
C     -7.3131     11.0605      8.1050
C      0.7266      7.3189      6.8891
C     14.3552      7.3550     13.8618
C      0.6218      7.6819      2.9867
H     -4.7401     12.6656      9.6676
C      2.1474      0.1229      4.0602
C      0.1680      2.8856      7.5725
C     -2.6808     10.9310      6.5229
C     -2.5639      3.7131      6.2066
C     17.6298     12.2822     17.3905
C     -9.7443     16.9542     10.1784
C      0.6549      1.9033      1.9089
C     -1.4584      7.6327      1.6056
C     -9.4808     12.0790      8.4685
N      1.8209     -1.0107      4.7311
C      3.8564      1.2427      0.5881
O     17.0663      6.1293     15.1448
C      9.3736      6.2162      0.3171
C     -2.4251      3.9253      3.4200
C     -2.8016      8.4655      9.3253
H      7.5403      3.0203      7.6502
H      2.0683      0.3374      6.4615
H      7.8823      4.6506     11.3341
H     -4.8108      9.1276      6.4567
C     -3.0046      9.5399      0.9656
H     -7.9452      6.6134      8.1184
H      1.5496      6.6266      9.2348
H     -0.4570      9.0962      2.8541
H     14.1330      9.5856     10.5522
H      4.4762      0.4511      0.8174
H     -1.3939      2.5971      8.3355
C     14.9323      7.3666     15.3317
H      3.0304      0.9564     -0.0780
C     14.0650      9.5187     11.4913
H      7.5546      5.9221     11.7613
H      1.8538     -1.9087      4.2996
C      4.4203      8.3938      4.1470
C      7.7551      7.3046      2.8628
C     20.1802      9.9856     13.9516
C     18.5949      8.2785     14.4800
C      4.4556      6.1640      6.3086
C      1.9947      4.8323      2.4527
C      5.9510      5.7999      0.1252
C      5.6353      7.5874      3.9161
C      8.0323      6.4169      0.5328
H     15.1289      9.9939     11.4783
C      4.2953      5.0234      7.3616
C      1.6573      4.9723      0.7382
H     -3.3648      8.0531      6.9199
C      6.4848      7.2338      5.1292
H      1.2231      1.7235      5.4482
H     -2.7390      3.7725      2.3388
C      6.9859      5.6097      0.8836
H     -0.7747      3.5094      3.9025
O      7.7155      7.3717      5.4539
H      8.6166      9.4215     11.4418
H     20.9059     10.5813     13.2897
H      0.7462      3.1615      3.8427
H      1.5274      3.9326     -1.1130
H      4.7718      5.7470      4.2121
C     12.6307      7.5462     11.2918
H      6.1025      3.6642      7.6707
C     15.7839      5.8877     15.7977
C     -1.8300      4.7287      5.6047
C      0.4929      7.0091      5.5043
H     -6.9493      9.0308      9.5195
H      2.2137      2.2291      4.5531
C      1.1540      5.8142      4.8978
H      1.7967     -0.2892      1.6160
H     -2.0634      8.4152     10.1829
C     -4.9067      7.2362      8.2144
C     -8.9424     13.6552      8.5531
C      6.1654      7.6869      2.6765
C     -2.8468     10.3744      5.3055
C     -0.1619      6.4263      2.9570
C     -1.4893      6.4538      3.7930
H     -2.5762     11.5346      8.5143
H      2.2443      2.9394     -0.1707
H      5.1583      4.6915     -1.5831
H     -3.3213      3.6559      5.3220
C    -11.2861     14.0065      8.8834
H     -1.5421     10.7781      6.5966
C      0.7925      5.3598      3.5741
C      5.0441      3.3781      2.3269
H      1.5804      4.8421      7.8918
H     18.1194      8.5282     19.9218
C      7.3807      3.8975      9.5716
H     -3.2180     11.4368      1.5938
H     -6.1632     11.5077      6.6654
C      2.3918      7.4047      9.0395
C     -1.3459      5.7644      6.1898
C      2.2586      0.0076      2.7055
C      1.2011      4.8520      6.0406
C      2.0978      7.1903      7.2091
C      1.4789      3.7884     -0.0265
H     -1.0540      5.1343      1.1702
H      3.6575      1.3171      3.0389
H     -2.8580      9.5878      9.5355
H      4.3985      2.2229      0.6342
H     -4.5344      6.8343      7.0446
H      8.5896      2.1681      9.0860
H     -1.9182     10.6126      4.7825
H      6.7864      0.9068      3.7733
C     -0.1745      9.1866      5.1937
C     -4.0189      7.3576      9.3636
H      4.3958      5.7084     -1.0226
H     -3.4210      8.9838      2.9231
C     -4.6692     10.8519      8.2465
H     -2.8929      3.1905      4.1978
H     -3.8063     10.7115      4.7964
C     -0.0730      8.1496      7.6423
C      0.3706      3.8809      5.4673
O      8.4755      5.2846      3.9396
C     -1.3488      8.2677      5.6294
C     -6.8834     13.7174      7.0363
C      5.2881      1.9564      6.5771
C      2.8856      0.7399      6.0825
H     -5.7523     13.7613      7.4043
H     -8.4021     15.8161      8.9475
H     -5.3462     11.2394     10.1907
H      0.0543     10.2700      6.8971
H     17.9508     12.8319     18.2250
H      0.3626      8.0645      8.5918
C      2.0772      5.3517      7.1045
C      4.0076      5.4761      4.9751
C     -9.4699     15.6689      9.2966
H     19.1130     10.5065     14.6006
H      0.3465      6.0468     -0.3906
C      8.1810      7.4026     10.5656
H     -9.4253     16.6310     11.1960
H     11.4198      7.5348     13.2236
C      4.3243      3.0851      4.6107
C     17.5816      9.7441     17.9391
C     -6.9270     12.1631      9.1213
C     -5.7353      9.2994      7.0059
C      5.8312      4.7964      7.6683
C     -7.3750     13.4514      8.4396
H     -1.3887      4.2718      8.5505
H     -3.5791      9.8278      0.0904
H     -7.3664     12.2104     10.0718
H      9.9739      5.3296      0.0047
C     14.4867      9.8596     14.1968
H     -8.7891     17.4036     10.0567
H     -1.7365      8.9681      3.4144
260

C     19.5994      8.6858     13.5706
N     -2.9149     10.5173      1.8877
C      3.7653      1.5764      7.1251
C      2.0929      2.4206      2.4372
C      7.2700      4.9464      2.2056
H     -3.0219      6.4608      2.6384
C      7.2063      3.6154      2.4598
C      3.4809      3.9109      5.5251
C     16.3662      7.4773     19.5390
C      6.2438      1.8354      3.9624
C     -6.9825      8.3084      8.8452
C     13.5486      8.6496     13.8993
N     -0.0978      2.8955      6.3483
C      0.5077      6.0659      0.5297
C      3.3789      4.1522      6.8722
H     13.4966      7.1841     10.9408
C     15.7290      6.3061     17.1929
C     16.6816     10.5527     16.0604
H     -2.4929      3.9828      7.2447
H     17.3542      5.5820     14.6177
C     16.9992      9.1428     15.8769
H     -8.3026      7.4988      9.8678
H    -10.9342     17.2679      9.7634
H     -1.3334      5.4265      7.3969
H     -6.9168     14.4119      9.2582
C      2.9259      2.8098      7.8561
H      7.0059      2.2406      4.5373
C     -5.2779     11.8571      9.2430
C      6.1248      5.8902      9.9603
H      3.3906      0.0609      5.6637
H      3.8780      5.6639      8.3833
C      6.2145      2.6771      2.7040
H      5.2036      2.8775      7.1294
H     -9.5095     11.6489      9.4127
H      1.8203      8.0775      8.6596
C     17.1998     10.9759     17.1906
C     -2.8195      8.7407      5.1416
O      2.1806      8.8029      4.6197
C     -1.2217      8.4953      7.2025
C      8.6435      8.1008     11.9367
C     20.3169      7.6745     12.7374
C      6.2624      6.9197     -0.9380
H      5.0949      3.4426      1.2097
H     17.4918      9.5298     13.6447
H      1.6241     -1.2890      5.7054
H     -5.6674      6.3231      8.4868
C      7.9975      3.1440      8.7713
C      7.2715      6.3609     10.9614
C      8.1132      5.8071      2.8444
H      8.0970      7.8100      1.8308
C     -0.8985      6.8453      5.3173
H     17.1457      8.5180     21.4155
H     16.3297     11.1494     15.2089
H      2.3194      5.3997      0.8037
C     -3.4171     11.1132      7.6853
C      6.3744      4.8789      9.0523
C     16.0549      7.6679     17.7582
C      4.8708      5.0501     -0.7348
C     17.3773      8.7333     14.5154
H     -3.6235      8.1736      5.5791
H     -9.8511     13.6319     10.4230
H     -7.7882     10.3016      8.8483
H     18.7676     12.3636     16.8432
C     -0.8438      3.4264      8.6275
H     20.8974      9.6608     14.6879
C     13.5640      8.5939     12.3819
C      1.4919      2.4523      8.1542
H     11.4799      6.1355     11.6276
C     -0.6885      6.1486      1.4896
H      5.2832      7.3599     -1.1155
H     -1.9127      2.7325      6.3730
H     18.7519      9.1089     12.6940
C      9.8981      7.5279     12.5276
O     15.4041     10.3416     13.6494
C     -6.1060      8.3173      7.8094
C     17.0962      8.6429     20.1626
C     -9.7710     14.0870      9.5937
C      2.0030      1.3827      4.9705
H     -2.0960     10.5483      2.1809
H     -6.6155     13.2437      6.5002
H      3.1496      6.9649      9.3136
C      3.9989      3.4692      3.1264
C     -2.5205      8.2052      0.7968
C     11.5893      7.0342     12.3318
C      5.0649      2.1878      4.9316
H     17.1475     13.0945     16.5354
C    -11.2763     12.5813      8.3223
C     -8.8285     11.1510      7.2467
C     -1.9509      4.9932      4.2672
C     16.6422      9.8371     19.2573
C      2.4483      3.6219      2.7283
C     -7.5299      7.0293      9.1757
H    -11.4496     12.1372      9.3379
H     15.4489      7.2790     13.2743
H      8.8582      5.8682      4.5489
O      5.7774      6.4549      6.2982
C      0.9837      8.1284      4.4489
H     -9.2596     12.1122      6.6136
C     -2.5829      8.7180      3.6110
C     -2.3447      7.3123      3.1346
H     -4.8889      9.8959      8.9530
C     -2.4976      8.3321      7.6999
H      2.5566      3.7080      5.0738
H      3.9844      4.7539      0.7385
H     -0.6085      2.7453      9.3540
C      3.1044      1.1997      2.0927
C     -0.1971      8.3184      2.0892
O      4.0094      4.3325     -0.1154
O      7.5525      3.9496     11.1243
C     -0.4035      3.0411      1.4944
C      0.1837      3.8401      4.1163
C     -6.1154     10.7065      7.1814
H     15.5541     10.1313     19.2976
H     -0.9101     10.2521      4.4756
H     12.2995      8.4527     10.6094
O      0.4312      9.9913      6.0516
C     -7.4876     11.0165      8.1356
C      0.9646      7.3561      6.8820
C     14.4571      7.4035     13.7987
C      0.5714      7.4298      3.0141
H     -4.9365     12.8280      9.0662
C      2.1531      0.1306      4.2094
C      0.1855      2.9287      7.7479
C     -2.6041     10.7936      6.4452
C     -2.5005      3.6094      6.2838
C     17.8066     12.2515     17.2571
C     -9.8753     16.8286     10.0961
C      0.7412      2.1609      1.7853
C     -1.4412      7.7064      1.8110
C     -9.6662     12.0524      8.4168
N      1.9656     -1.2347      4.7333
C      3.7135      1.3159      0.5944
O     16.9838      6.0268     15.3577
C      9.3837      6.4234      0.4107
H     18.6352      9.7677     18.5488
C     -2.4829      3.9319      3.6822
C     -2.8136      8.3272      9.1728
H      8.2868      3.1713      7.6003
H      2.1840      0.1442      6.8430
H      8.5090      3.7220     11.3909
H     -5.1702      9.2026      6.1793
C     -3.1850      9.3078      1.1193
H     -7.7355      6.5250      8.0422
H      1.1820      6.7208      9.1688
H     -0.1859      9.2771      2.3790
H     14.0966      8.8652     10.7268
H      3.8848      0.1523     -0.0033
H     -1.9002      3.4942      8.7231
C     14.9702      7.3000     15.2650
H      2.9661      1.1951     -0.1270
C     14.3180      9.5438     11.4912
H      8.1204      6.0708     11.7759
H      1.5049     -1.8619      4.1021
C      4.4857      8.2839      4.1620
C      7.8474      7.2442      2.6735
C     20.2512      9.9431     13.9226
C     18.6950      8.2022     14.6135
C      4.4598      6.2908      6.1452
C      1.7605      4.8905      2.5095
C      5.8972      5.8326     -0.0500
C      5.7029      7.4026      3.9760
C      7.9717      6.5665      0.4686
H     15.3034      9.7418     12.0807
C      4.3702      5.2419      7.4051
C      1.4610      5.0094      1.0211
H     -3.3363      8.7521      6.8128
C      6.5122      7.0809      5.2450
H      1.2847      2.1043      5.2027
H     -2.5588      3.7776      2.6277
C      6.9948      5.6538      0.8348
H     -0.6201      3.8028      3.6533
O      7.7634      7.3930      5.1805
H      8.6552      9.3625     12.0533
H     20.4023     10.4305     12.8680
H      0.8794      3.3475      3.4775
H      0.8072      3.6510     -0.9530
H      4.5967      5.0174      4.3021
C     12.7140      7.7545     11.5790
H      6.4189      4.3536      6.9101
C     15.7266      6.0685     15.7083
C     -1.8201      4.8551      5.6407
C      0.5901      7.0806      5.4667
H     -6.7587      8.8394      9.6814
H      2.4037      2.0247      4.1946
C      1.3915      5.8589      4.8445
H      1.7386     -0.5749      1.8299
H     -1.8106      8.4068      9.4712
C     -4.9602      7.2037      8.2455
C     -8.7837     13.3646      8.4709
C      6.3227      7.5489      2.6677
C     -2.9596     10.2078      5.2328
C     -0.1089      6.2070      2.9693
C     -1.3421      6.3358      3.7912
H     -2.4615     11.4552      8.3522
H      2.6044      3.5036     -0.1681
H      5.2829      4.4658     -1.5138
H     -3.5813      3.4093      5.9747
C    -11.1281     14.1732      8.8237
H     -1.6523     11.2361      6.1225
C      0.6394      5.2073      3.6875
C      5.0884      3.4135      2.2781
H      1.7099      5.0540      8.4467
H     18.1069      8.5974     20.3740
C      7.4806      4.0685      9.5139
H     -3.6244     11.3134      1.9395
H     -6.4917     11.2050      6.3282
C      2.1548      7.0411      8.7800
C     -1.3706      5.8782      6.1922
C      2.2076      0.0959      2.5722
C      1.2593      4.8988      5.8978
C      2.1788      6.9075      7.3795
C      1.5354      3.6755     -0.1134
H     -1.6584      5.6648      1.1934
H      3.7222      1.6698      2.8262
H     -3.3839      9.2375      9.4588
H      4.0119      2.3363      0.3932
H     -4.2171      7.3074      7.1244
H      8.1365      2.1399      9.1875
H     -2.4442     10.6010      4.4387
H      6.6718      0.6788      3.7497
C     -0.2473      9.3603      5.0116
C     -3.9966      7.4768      9.5150
H      4.4226      5.8495     -1.2429
H     -3.4894      9.1260      3.0983
C     -4.8348     10.8562      8.2072
H     -3.2693      3.2830      4.0045
H     -4.0556     10.3520      5.4062
C      0.0959      8.1254      7.4883
C      0.2941      4.0241      5.6535
O      8.2914      5.1266      4.0552
C     -1.4335      8.4011      5.7560
C     -6.8947     14.0231      7.2174
C      5.0704      1.9602      6.5069
C      2.9658      0.8702      6.1266
H     -5.9718     14.6479      7.5096
H     -8.3387     15.7259      9.2764
H     -4.8765     11.4402     10.1784
H      0.4018     10.0861      7.0867
H     18.1041     12.3764     18.3082
H      0.1054      7.7825      8.6157
C      1.9516      5.2827      7.2317
C      3.8599      5.3722      4.9726
C     -9.5612     15.6897      9.3228
H     19.5197     10.6852     14.4407
H      0.0059      6.3251     -0.3901
C      8.1443      7.5284     10.6774
H    -10.0495     16.0826     11.1354
H     12.1651      6.7523     13.3253
C      4.2309      3.0521      4.5699
C     17.6667      9.8067     18.2193
C     -6.8185     12.2045      8.8618
C     -5.9026      9.3204      6.9058
C      5.7351      4.6483      7.8392
C     -7.3142     13.6183      8.5889
H     -0.4066      4.4723      8.8420
H     -3.9154      9.4877      0.3946
H     -7.0694     12.3688     10.0600
C     14.4047      9.8868     14.2897
H     -9.1856     17.8006     10.0565
H     -1.6300      9.3740      3.3472
