267

C     19.6817      8.1911     13.8476
N     -2.5736     10.5647      1.2433
C      3.7499      1.5958      7.0529
C      2.3236      2.5523      2.0690
C      7.9309      4.7674      2.2375
H     -2.8124      6.9196      1.8657
C      7.9452      3.4010      2.7765
C      3.5161      3.8871      5.1826
C     16.2994      7.2457     19.3728
C      6.3957      1.7406      4.0912
C     -7.6278      8.2498      9.6294
C     13.3974      8.7975     13.5804
N     -0.1133      2.7116      5.7977
C      0.1190      5.6354      0.3316
O     -1.2089      2.3656      1.6787
C      3.2092      4.0982      6.5950
H      0.2424      5.9349     -0.6543
C     15.6106      6.4554     17.3203
C     16.9263     10.2684     16.6427
H    -11.8075     14.6707      9.7828
H     -2.9682      3.0954      4.5708
H     16.9484      7.2350     14.4987
C     17.0720      8.7987     16.4439
H     -8.6464      6.1169     10.5490
H     -7.1608      8.6732     10.7166
H     -1.7466      5.3885      6.8889
H      7.6610      2.7570      7.8912
C      2.9015      2.8619      7.3642
H      6.9998      1.0474      4.5246
O     14.2926     10.4524     15.4170
C     -4.9410     12.9364      8.2169
C      6.2585      5.9813      9.8019
H      3.4888     -0.3938      6.8512
H      3.7133      5.3269      8.0645
C      6.6964      3.1111      3.1953
H      5.5872      3.1829      7.5425
H     -8.3807     10.5955      9.4003
H      3.3656      7.0258      8.9501
C     17.7899     11.0648     17.3307
C     -2.8350      8.6932      4.7411
O      2.0018      8.7581      5.1521
C     -1.5023      8.3454      7.1681
C      8.8039      7.7863     11.7703
C     20.6636      7.2603     12.9353
C      6.4997      6.6475     -0.8460
H      5.4882      4.7477      2.3051
H     17.0179      9.1657     14.3512
H      2.1175     -0.9655      5.7594
H     -4.2195      5.3492      8.5903
H     15.5225     10.8905     12.5589
C      8.0645      2.9329      8.8962
H      0.9302      0.8115      1.8047
C      7.1429      6.3103     10.8281
C      7.9321      5.6710      3.2272
H      8.1029      7.2652      1.9575
C     -1.2014      7.0061      5.1412
H     16.3704      8.5518     20.9585
H      3.0604     -0.8059      2.0353
H     14.0883      7.0567     13.2516
C     -3.2183     11.5902      7.3780
C      6.3117      4.8497      9.0478
C     15.9654      7.6543     18.0175
C      4.8504      5.0528     -0.2241
C     17.7280      8.7424     15.1603
H     -3.3801      7.6147      5.0417
H      8.7775      7.7052      3.5066
H     -9.0692     14.4984     10.3574
H     17.8176     13.1800     17.0306
C     -0.3655      3.5958      8.2215
H     21.5147      8.9978     14.2732
C     13.0678      8.8868     12.2736
C      1.4530      2.2061      7.3672
H     11.0478      7.1924     10.0372
C     -0.6649      6.4344      1.1338
H      5.7257      7.5177     -1.1402
H     19.1266      8.3071     12.8136
C     10.1307      7.3684     12.3806
O     14.9496     11.2314     13.5423
C     -6.5082      8.3031      8.7762
C     16.9384      8.6262     20.0814
C     -9.5055     14.8102      9.3651
C      2.5969      1.0553      4.9089
H     -1.8035     10.7439      1.9243
H     -6.9383     12.6117      7.3044
H    -11.2322     17.0420     10.4561
C      4.1516      3.3110      2.9430
H     -3.4575      7.5251      7.5277
C     -2.3378      8.3027      0.4872
C     11.2784      7.2158     11.3359
H     -1.6244     10.5169      6.0037
C      5.1219      1.9045      4.8654
H     17.4827     12.5392     18.6848
C    -10.5713     12.7635      9.3690
C     -8.4168     11.5132      8.5594
C     -2.4216      5.3511      3.6942
C     16.9325      9.7430     19.2710
C      2.9433      3.7261      2.4810
C     -7.9047      6.7622      9.6627
H     15.3069      8.4686     13.6355
H     -3.3310      5.9415      3.8198
H      1.4527      3.6125     -0.8334
O      5.8754      6.3492      6.6857
C      0.6555      8.2211      4.3712
H     -8.9568     10.7977      8.0635
C     -2.4789      9.0286      3.2869
C     -2.1278      7.5553      2.6882
H     -6.2177      7.3977      8.0487
H      8.3395      3.5218      3.8569
C     -2.8599      8.3820      7.7291
H      2.3706      3.8944      4.7032
H     13.2785      9.4911     10.2797
H      5.3799      3.4589      0.8564
H      0.6831      4.0821      8.8154
C      3.4202      1.2841      2.0766
C     -0.2320      8.5423      1.8024
O      4.5776      3.9436      0.3514
O      7.5188      4.0417     11.1180
C     -0.0913      2.7446      1.6371
C     -0.0829      4.1470      3.8259
C     -5.7982     10.8596      7.7909
H     -2.9205      9.5699      7.4928
H     15.9281     10.0326     18.5306
H     -0.3351     10.3273      4.3761
H     13.3015      7.3869     10.8002
O      0.2760      9.8830      6.1587
C     -6.8981     11.8824      8.0632
C      0.5791      7.0976      6.8045
C     14.6209      7.7375     13.9183
H     15.9867      8.6725     15.2631
C      0.6755      7.7092      2.8681
H     -4.2335     13.6110      8.5464
C      2.5148     -0.0338      3.9560
C     -0.0169      2.4490      7.2370
C     -2.8513     10.4855      6.3721
C     -2.5210      3.7004      5.5177
C     18.0100     12.3703     17.7378
C    -10.1620     17.2706      9.8614
C      1.1271      1.9255      1.5219
C     -1.4462      7.7163      1.4367
C     -9.3907     12.6272      8.8985
N      1.9848     -0.9873      4.7522
C      3.7089      0.7903      0.5920
O     16.8310      6.2436     14.8197
C      9.8853      6.0672      0.0671
H     18.6261     10.9393     19.5981
H     -0.4048      1.2621      7.2003
C     -2.2198      4.3248      2.8316
C     -3.1449      8.0563      9.0565
H      8.8773      2.1755      9.5572
H      1.4562      1.1708      6.6595
H      6.7525      3.6606     11.6002
H     -4.8122      9.7014      9.1904
C     -2.8534      9.6295      0.3489
H     -8.2981      6.7591      8.6596
H      1.5076      7.7044      9.0997
H     -0.3386      9.4099      2.3218
H     14.3795     10.5887     11.2937
H      4.1235     -0.1631      0.9001
H     -0.8878      3.4750      9.1095
C     15.1956      7.7923     15.3217
H      2.5670      0.4028      0.5403
C     13.5763      9.8100     11.3118
H      1.8151     -1.8103      4.1346
C      4.3379      7.8561      4.3873
C      7.8318      7.0823      3.0154
C     20.6855      9.6002     13.8461
C     18.7529      7.8838     15.0097
C      4.5144      6.1016      6.2933
C      1.7867      4.8664      2.2761
C      6.3460      5.4583     -0.0257
C      5.7747      7.0433      4.3292
C      8.5388      6.1060      0.5250
C      4.2406      4.9577      7.2718
C      1.3479      5.1473      0.8880
H     -3.1763      6.5172      6.2207
C      6.6551      6.9825      5.6228
H     -1.0737      2.8829      5.7076
H     -2.4476      4.5917      1.7442
H      1.3786      2.2244      0.3170
C      7.4847      5.1180      0.9124
H     -1.0488      3.7635      3.2420
O      7.6891      7.2766      6.0979
H      8.9350      8.9151     11.8794
H     20.8127     10.2074     13.0345
H      0.3029      3.4468      2.9411
H     -3.0911     11.4371      1.3641
H      2.7161      4.8994     -0.4639
H      4.7902      5.1903      4.2604
C     12.6325      7.7952     11.5489
C     15.7996      6.5908     15.7324
H      1.9592      6.0532      9.1922
C     -2.3114      4.9666      5.1443
C      0.3008      7.0277      5.2448
H     17.9181      8.6063     20.4726
H      2.2107      1.9714      4.9885
C      1.3090      5.9600      4.5429
H    -11.3233     11.9297      9.4198
H      1.7887     -0.0768      2.1257
H     16.2820     10.5215     15.7793
H     -0.1972      7.7647      8.6373
C     -4.4568      6.2605      8.3133
C     -8.7965     13.9287      8.5761
C      6.3983      7.1846      3.1772
C     -3.6324      9.7934      5.4354
C     -0.0047      6.4028      2.5653
C     -1.3557      6.7357      3.7169
H      3.0497      3.3453      0.3899
H      4.6849      5.1020     -1.2673
H     -2.6424      2.8465      6.2973
C    -11.3714     14.1099      8.9399
H     -1.2395      9.2219      7.5334
C      0.7535      5.2892      3.2121
C      5.5309      3.8583      2.8272
H      1.4435      4.8999      7.8288
H     -4.6412      9.2432      7.9251
C      7.2507      3.8306      9.5735
H     -2.7148     12.6111      7.3337
H     -5.6389     10.3121      6.8501
C      2.3038      6.8999      8.6864
C     -2.1224      6.0076      6.1278
C      2.7915      0.1656      2.5373
C      1.2464      5.0826      5.5779
C      2.1373      6.5399      7.1466
C      2.0524      4.1576     -0.0311
H     -3.1142      8.7784     10.0315
H      4.2936      1.4809     -0.0575
H     -5.3572      6.6676      7.9378
H      5.8186      1.2283      3.4920
C     -0.4149      9.2870      4.7947
C     -4.1448      7.0797      9.3900
H      4.3614      6.0541      0.1122
H     -3.3831      9.1547      2.9166
C     -4.5356     11.6578      7.7534
H     -3.1178      3.4421      2.6262
H     -4.5443      9.2236      5.9182
C     -0.4056      7.3991      7.6385
C      0.5756      3.9054      5.1666
O      8.0516      5.5611      4.5185
C     -1.4809      8.5282      5.6247
C     -6.7443     14.4904      7.1743
C      5.0761      1.8821      6.3463
C      3.2623      0.5977      6.1337
H     -4.2241      5.8703      7.1951
H     -5.8316     14.6893      6.4168
H     -8.4556     16.4697      8.6311
H     -6.1802     12.4262      9.8533
H      0.8869      9.0755      6.3756
H     19.0519     12.5511     17.8768
C      1.8456      5.1367      6.7263
C      3.9599      5.4119      4.8907
C     -9.5100     16.1555      8.9816
H     21.1475     10.3981     14.6172
C      8.3174      6.9786     10.6954
H     -9.8292     16.9021     10.8725
H     11.4399      5.8979     11.6102
C      4.1838      2.8556      4.3091
C     17.9946     10.5065     18.7993
C     -6.3001     12.7541      8.8343
C     -5.5739      9.4566      8.4322
C      5.5955      4.2961      7.9403
C     -7.1423     13.9683      8.5316
H     -0.8821      4.4134      7.8644
H     -3.5592      9.9210     -0.4851
H     10.0710      5.1717     -0.4858
C     14.2403     10.1485     14.3103
H    -10.0291     18.2253      9.7334
H     -1.8135      9.7638      3.3318
