266

C     19.6403      8.5310     13.7269
N     -2.7995     10.2394      1.6338
C      4.2350      1.8266      6.9982
C      2.4409      2.4769      2.0703
C      7.6693      4.7844      2.3300
H     -2.8697      6.1296      2.7342
C      7.8429      3.4355      2.7088
C      3.3873      3.8611      5.2415
C     15.9308      7.2449     19.5293
C      6.5548      1.7492      4.0348
C     -7.0839      8.4644      9.0670
C     13.6082      8.8689     13.7212
N      0.3164      2.6183      6.2471
C      0.6899      6.3046      0.7949
O     -1.2363      2.1420      1.2604
C      3.2798      4.1703      6.9799
H     13.0617      7.0272     11.9750
C     15.4639      6.1061     17.3831
C     16.9114     10.3466     16.1055
H    -11.1169     14.0064     10.3330
H     -2.9235      2.7685      4.3139
H     17.5344      6.0941     16.2868
C     16.8580      8.8338     16.0924
H     -7.5831      7.5209     10.6719
H     -7.6522      9.5766      9.3365
H     -2.0570      5.3184      7.1428
H     -6.6846     14.7053      9.0910
C      3.1712      2.9565      7.7116
H      7.3766      1.4397      4.4846
O     14.1364     10.5184     15.3563
C     -4.9007     12.4628      8.4265
C      6.4049      6.1372      9.5489
H      3.3732     -0.4311      6.8609
H      4.2665      5.8346      8.2246
C      6.6997      2.8551      3.1304
H      5.4316      3.4015      7.7443
H     -4.4318     12.9270      9.3311
H     -8.8809     11.9807      9.9321
H      2.6054      7.5337      8.7986
C     17.0622     11.0593     17.3057
C     -3.0866      8.3896      4.9399
O      1.7854      8.5657      4.9269
C     -1.8853      7.9606      7.1720
C      8.9094      8.0009     11.9780
C     20.5352      7.5633     12.9286
C      6.4986      6.6563     -0.8041
H      5.5214      3.8294      1.6724
H     16.9724      9.1403     14.0893
H      2.2975     -1.2028      5.4594
H     -5.8556      6.3001      8.2524
C      8.0044      2.8981      8.7873
H      1.2707      1.2593      1.0738
C      7.1713      6.2795     10.8147
C      7.8895      5.6537      3.2483
H      8.0689      7.4339      2.1833
C     -1.0700      6.6364      5.2095
H     16.0483      8.6493     20.8590
H     16.6120     10.4821     15.1358
H      2.5774      5.9517      0.5170
C     -3.3049     11.5342      6.9064
C      6.3712      4.6833      9.1277
C     15.9164      7.5578     18.0502
C      4.5856      5.2554     -0.1064
C     17.3097      8.4919     14.8598
H     -4.0040      7.5945      4.8820
H      8.1863      7.5423      3.7983
H     -9.0651     14.6140     10.3602
H     18.5550     12.6263     16.5441
C     -0.4637      3.5264      8.0617
H     19.4872     10.0624     15.2715
C     12.5706      8.8194     12.5360
C      1.9320      2.0306      8.0075
H     11.0560      6.8727     10.4951
C     -0.4965      6.2720      1.6591
H      5.5092      7.0125     -0.6993
H     18.9200      9.0025     12.9252
C     10.2894      7.2328     12.6006
O     15.4030     10.6893     13.2232
C     -5.8046      8.5043      8.5442
C     16.7856      8.3632     20.2374
C     -9.2364     14.6559      9.5029
C      2.4516      1.0761      4.9913
H     -2.0078     10.2876      2.3173
H     -3.7161     10.6444      1.9150
C      4.3566      3.4295      3.3921
H     -3.6973      8.8201      7.3594
C     -2.0244      8.2295      0.4358
C     11.3420      6.6364     11.6327
H     -1.6068     11.3066      5.7055
C      5.5527      2.3152      5.0781
H     17.3899     13.5805     17.6031
C    -10.3676     12.4668      8.9102
C     -8.2763     11.1512      8.2718
C     -2.2213      4.7554      3.7334
C     16.6789      9.5366     19.4801
C      2.9068      3.6471      2.6782
C     -7.6139      7.1078      9.6926
H    -10.4222     11.8078      9.7140
H     15.7310      7.8259     13.8681
H      8.6795      5.7696      5.0118
H      0.4976      4.5143     -0.3245
O      5.5018      6.4690      6.3618
C      0.5788      7.9796      4.6763
C     -2.9175      8.3584      3.4406
C     -2.3317      7.0647      2.8197
H     -5.2884      9.4127      9.1566
H      8.2466      3.1657      3.6759
C     -2.8912      8.8440      7.9300
H     12.6240     10.2826     10.8431
H     -0.7883      3.4613      9.1919
C      3.3690      1.3519      2.0048
C     -0.2084      8.5214      2.2241
O      4.0880      4.0009      0.1596
O      7.7217      3.8513     10.8783
C     -0.2261      2.9662      1.5590
C      0.3167      3.5473      4.0344
C     -6.0408     10.5836      7.0844
H     -2.5799      9.8330      8.4996
H     15.8572     10.4958     19.4207
H     -0.8810      9.6756      4.4100
H     12.8639      7.9636     10.5370
O      0.0533      9.7157      6.0092
C     -6.9139     11.2148      8.2680
C      0.4974      6.9365      6.8768
C     14.5067      7.6095     13.9800
H     15.5467      8.5712     15.9884
C      0.5324      7.6161      3.1998
H     -4.3902     13.3295      8.2623
C      2.5138     -0.0085      4.0793
C      0.6791      2.6532      7.6353
C     -2.4682     10.6937      5.9058
C     -2.4589      3.1282      5.2484
C     17.8710     12.3373     17.4276
C    -10.3492     16.8498     10.1921
C      1.1457      2.4186      1.3463
C     -1.2824      7.5708      1.6616
C     -8.9045     12.4241      8.9180
N      2.2549     -1.3028      4.5358
C      3.6675      1.3538      0.5779
O     16.8730      6.3150     15.5153
C      9.4898      6.2439      0.4836
H     18.4145      9.8326     18.0920
C     -2.6728      4.0193      2.7445
C     -2.9231      7.9384      9.2236
H      7.6154      2.3827      7.9367
H      2.2797      1.0346      7.2630
H      8.5896      3.4381     10.6835
H     -4.5790      9.7069      5.9481
C     -3.0058      9.1008      0.9125
H     -8.7390      7.3067      9.3279
H      0.9363      6.7440      9.2569
H     -1.0159      9.1926      2.6275
H     14.0637      9.3916     11.8077
H      3.8398      2.1293     -0.2930
H     -1.3834      3.1277      7.3837
C     14.7402      7.7437     15.4343
H      4.8122      0.8370      0.8207
C     13.2617     10.1839     11.9679
H      1.9791     -2.2790      4.0912
C      4.2876      8.2995      4.6486
C      7.6517      7.0718      3.0065
C     20.1604      9.5134     14.4657
C     18.5251      7.6874     14.6849
C      4.1665      6.0153      6.2122
C      2.0626      4.8889      2.6251
C      6.0946      5.5233      0.1283
C      5.4762      7.3405      4.2505
C      8.1712      6.3325      0.4931
H     13.3096     11.2358     12.4825
C      4.3020      5.0739      7.4929
C      1.8169      5.3543      1.0903
H     -2.2952      7.1265      7.5778
C      6.2745      7.1341      5.5635
H      1.3398      1.3809      5.2957
H     -2.5572      4.2882      1.7410
H      1.2773      2.9928      0.3470
C      7.2638      5.2268      0.8997
H     -0.6679      3.2677      3.5060
O      7.4784      7.1531      5.6808
H      8.3832      8.8281     11.2366
H     20.8653      8.9229     14.8078
H      0.8309      2.9169      3.4736
H      2.0584      5.3653     -0.5848
H      7.8492      2.1261      9.5934
H      4.5326      5.2601      4.3677
C     12.5104      7.7568     11.5175
H      6.5764      4.2890      7.1888
C     15.5411      6.2884     15.8119
H     -0.1416      8.1439      8.6239
C     -2.0951      4.3490      5.0161
C      0.3333      6.6808      5.3666
H     -7.9747      8.4706      8.1214
C      1.2378      5.5998      4.8205
H    -10.8292     12.3882      7.9102
H      2.8549     -0.7285      2.1321
H     15.3178     10.5924     15.7133
C     -5.0413      7.1776      8.5168
C     -8.4718     13.9062      8.3426
C      6.1175      7.3631      3.0119
C     -3.4231      9.7721      5.2369
C     -0.0885      6.0945      3.0499
C     -1.3857      6.1439      3.6496
H      2.3967      3.6793     -0.4193
H      4.7644      5.5554     -1.1560
H     -1.9783      2.7461      6.0623
C    -10.5085     14.0568      9.2304
H     -2.1126     10.1134      6.6515
C      0.9025      4.7577      3.5795
C      5.3625      3.1310      2.5668
H     -0.3372      4.4026      7.5797
H     -7.0115      8.6231      6.8123
C      7.3386      3.8539      9.5691
H     -3.0540     12.5719      7.2846
H     -5.9975     11.2903      6.1300
C      2.1349      6.6932      9.0107
C     -1.4529      5.3285      6.0089
C      2.4797      0.1504      2.6466
C      1.1557      4.6716      5.8512
C      1.8515      6.5979      7.3188
C      1.5695      4.6005     -0.1057
H     -1.0930      5.6230      1.2478
H      4.1636      1.8429      2.6406
H     -2.1758      8.0773      9.8396
H      3.1347      0.4019      0.0413
H     -5.0955      6.9702      7.1905
H      9.1738      2.6679      8.9108
H      5.9403      1.0764      3.5402
C     -0.8160      8.8454      5.1819
C     -4.0166      7.3773      9.5754
H      4.2109      6.0351      0.5335
H     -3.7075      8.9419      3.0916
C     -4.4266     11.2323      7.7025
H     -2.6592      2.9546      3.1205
H     -3.4635      9.8984      4.0369
C     -0.3175      7.8905      7.4807
C      0.7224      3.5321      5.4857
O      8.4740      5.1558      4.4344
C     -1.7820      7.9396      5.5637
C     -6.6002     13.7152      7.1522
C      5.6186      1.9737      6.5373
C      3.1458      0.7366      6.3782
H     -5.7349     13.7857      6.4955
H     -8.2448     16.5216      9.2479
H      0.8242      9.8083      5.4157
H     18.2272     12.6211     18.3009
C      1.9962      4.9566      6.9281
H     -0.4082      4.2607      1.7504
C      3.6458      5.2763      4.8757
C     -9.4718     16.1378      9.1674
H     20.6198     10.1171     13.6424
H      0.3111      6.4472     -0.0885
C      8.4080      6.9740     10.8873
H    -11.1014     15.9824     10.5553
H     11.4747      5.6252     11.5724
C      4.4061      2.9647      4.7099
C     17.2209      9.6950     18.1551
C     -6.2231     12.4126      8.9571
C     -6.1074      9.0763      7.1106
C      5.7702      4.4820      7.7307
C     -6.7964     13.8001      8.7021
H     -0.4587      4.6581      6.3090
H     -3.6955      9.1524      0.2120
H     10.0045      5.5056      0.9306
C     14.5028     10.0542     14.0566
H     -9.4385     16.9216     10.9449
H     -1.8263      8.7457      3.1771
