270

C     32.3886      9.0422     13.7768
C      4.2780     14.3410      6.9108
C      2.8110     15.6812      0.9152
C      7.3507     17.8936      2.6021
H      9.7727      3.5417      2.7555
C      7.5505     16.5167      2.7844
C     15.8986      3.9130      5.4317
C     19.3025      9.8408     11.0301
C     28.6580      6.9959     19.4384
C      6.0640     14.8051      4.2556
C     19.0359      8.6562     10.0361
C     26.8765      8.8375     13.6408
N     -0.3814     16.1331      6.3127
C      0.8499     18.9844      0.2348
O     11.4854      2.1861      2.7654
C     16.0151      3.7809      6.8307
H      0.5947     19.3115     -0.7224
C     28.5416      6.0957     17.3286
C     29.2241     10.2988     16.9742
H      1.9026     12.8872     10.0128
H     10.7917      3.1417      5.8692
H      6.3314     17.8187      3.2778
H     20.4080     10.9551      9.8631
C     29.7590      9.0797     16.3516
H     28.4673     11.1877     12.1275
H     20.2452      9.8230     11.6178
H      7.9344     16.4968      3.6964
H     25.4896      7.3256     10.7688
H     11.7259      5.1074      6.3875
C      3.0469     15.1212      7.3283
H     -3.9359     22.6854      1.2950
H      6.9955     14.6560      4.4100
O     27.9573     10.5269     14.7837
C      8.5932     13.5916      8.1303
C     19.4496      6.1560      9.9949
H      2.2231     18.3944      8.8843
C      6.2549     15.5811      3.0031
H     19.3189      5.2557      7.7454
H     18.4990      9.9718     11.8044
H      4.9557     10.9088      7.0004
H     17.0177      7.7000      9.7420
C     30.1768     10.6562     17.9681
C      9.9750      8.2489      4.7700
O      1.9160     21.4498      5.0385
C     -1.8699     20.2063      6.8386
C     21.3495      8.2990     12.1065
C     33.2561      7.8974     13.2134
C     19.1335      7.2425     12.2323
H      5.4062     16.7512      1.6691
H     29.5474      9.3784     14.4479
H      1.5533     12.5985      2.8799
H     -4.4248     18.2982      9.7712
H     28.2895     10.1111     17.7058
C     19.6132      7.2602     10.8428
C      8.1878     18.7926      3.3250
H     33.9775     10.9643     12.9363
C     11.6428      6.4586      4.8657
H     28.3489      7.9364     21.2970
H      4.4498     13.6486      2.8214
H     18.5463     11.3312      9.6562
H     29.8966      5.1798     15.2564
C     10.1668     11.7069      7.1463
C     18.3810      5.8459      9.1907
C     28.7468      7.4470     17.9765
C     17.4640      5.5600     13.4002
C     30.5128      9.0878     15.0200
H      8.8170      7.4931      4.5926
H      8.2204     21.1585      3.2722
H      4.1470     14.5826     10.5029
H     32.0172     11.2813     18.4276
C     -0.2251     15.5818      8.5414
C     26.3724      8.5967     12.2694
C      1.5539     14.4841      6.9970
C     -0.4084     19.3193      1.2043
H     18.1096      7.7748     12.2746
H      9.3427      3.2311      5.3915
H      5.6414     17.6331      4.7538
H     19.3494     11.6292     11.2337
C     22.7397      7.8051     12.8161
O     27.5862     10.9830     12.5188
C     19.6880      8.4881      8.6075
C     28.6621      8.0882     20.3363
C      3.6883     14.3785      9.4674
C      3.3689     14.4905      4.5910
H     -2.3825     23.3007      2.0831
H     16.4787      6.3143     13.4588
C      3.8224     16.5531      3.2339
H      8.6878      9.2711      5.7515
C     -2.2874     21.6879      0.5774
C     23.7463      7.4650     11.7512
H     21.2030      6.1764     11.4555
H      0.6491     23.1500      6.0978
C      5.4643     15.8458      5.2452
H     31.7348     11.7750     16.7537
H      8.2138     15.7679      2.1825
C      3.0748     12.4388      8.2850
C      5.4617     11.8941      7.2265
C     11.1442      4.8329      3.1347
C     28.9348      9.6776     19.7660
C      2.6203     16.2918      2.4846
C     17.4317      8.6556      9.8700
H      2.8203     11.4145      8.5181
H     28.9367      8.4504     13.9661
H      9.6290      4.7295      1.7110
H     25.7312      9.4025     11.9573
H      2.3897     16.2909     -1.1483
O      5.0188     19.9030      6.8233
C      0.6202     21.1222      4.5401
H     29.5603      9.9657     20.6045
C     10.5124      8.6698      3.5371
C     10.9844      7.4782      2.7160
H     19.1717      9.3922      8.0049
C     -3.0053     20.0363      7.6654
H     28.5508      7.7808     11.4053
H      6.2117     15.1517      2.0741
H     -0.9697     16.4411      8.3037
C      3.5945     14.4634      0.9645
C     -0.1361     21.6288      2.0379
C     11.4244      2.9498      1.4554
C     -0.0260     16.7844      3.6897
C      7.7603     11.4737      7.2215
H      1.3501     12.7215      4.4968
H     -3.8272     19.6636      7.1357
H     27.7986     10.3926     19.5700
H     27.9296      6.7133     13.4943
O      0.1018     22.4259      6.4493
C      6.7269     12.2509      7.5482
C      0.3971     19.5190      6.5971
C     27.9801      7.9288     13.9891
C      0.5580     20.8283      3.0381
H      9.0538     13.1683      8.9805
C      2.5734     14.1567      3.3358
C      0.2116     15.1918      7.1211
C     10.4895     10.2424      6.8332
C     10.2344      3.0917      4.9549
C     31.2846     11.2358     17.6671
C      3.0657     16.6397      9.5479
C     12.9570      3.5044      0.9682
C     -1.2937     20.7647      1.4993
C      4.4805     12.5196      8.0964
N      1.9344     12.8601      3.7061
H      3.4311     12.3746     -0.0473
C      3.1666     13.5060     -0.3041
O     29.8239      6.0988     15.1652
C      9.4203     19.7516      1.0131
H     31.1119      8.8586     19.4099
H      1.4439     13.6903      7.8067
C     10.4637      3.9390      1.9476
C     -2.9763     19.9434      9.1532
H      1.3970     13.9913      6.1261
H      7.7987     17.8857      0.4476
H     20.6522      9.4864      7.0964
C     -2.9961     22.4775      1.4204
H     17.2771      9.1957      8.8522
H      0.9339     20.1203      9.1905
H     10.1016      5.9139      6.1974
H     -1.0666     22.3447      4.7471
H     26.7433      8.3574     10.6433
H      2.9258     13.7919     -1.2563
H      0.7278     16.1852      8.6970
C     27.7340      7.5663     15.3751
H     17.2473      6.2655      9.3327
C     27.5714      8.4649     11.4260
C     19.3827     11.0218     10.2675
H      2.9834     17.0440     10.7091
H     29.0387     11.1560     16.4972
C      4.2307     21.1499      4.6340
C      7.6901     20.1356      2.8454
C     33.0509     10.5775     13.4992
C     31.8976      8.6611     15.0867
C      3.9064     18.9380      6.3193
C      2.0675     17.7041      2.0959
C     18.6789      6.0533     13.2591
C      5.5906     20.2772      4.3044
C      7.7947     19.9030      1.2946
C     17.0004      4.9368      7.5505
C      1.8030     17.8458      0.6098
H      8.0451     20.8382      5.6482
C      5.9718     20.1416      5.6105
H     10.1507     18.9080      0.5549
H     13.5514      2.6485      1.3231
C      7.0744     18.7276      1.1316
H     -0.2019     16.3431      2.7652
O      7.1329     20.5898      6.1443
H     22.0904      9.3330     12.1730
H     -0.3710     22.7314      2.1816
H     16.5877      4.5857     13.3773
H      4.6893     18.0634      4.0672
C     25.0869      7.8491     11.5648
H     -5.0196     19.1127      8.4240
C     28.5539      6.0621     15.7527
H      0.4814     18.2689      8.6943
C     10.7914      4.4123      4.4492
C     13.1985      6.6910      5.1940
H     17.1095      8.9811     10.9718
H      3.2894     12.6674      5.5769
C     14.2246      5.5718      4.6384
H      2.8461     12.8307      2.0785
H     -0.4591     19.8685      8.4310
C     -5.1351     18.9899      9.4975
C      4.8476     13.8626      8.5146
O      6.3066     17.0818      5.4669
C      6.3526     20.4401      2.8280
C      9.6705      9.6161      5.5032
C     -0.0643     19.3702      2.8255
C     11.4981      6.2004      3.3055
H     29.6370      8.1301     20.6149
H     27.9114      9.5514     11.1773
H     10.1739      2.1200      4.5396
C      2.7922     13.0670      9.3968
C      0.7418     18.0014      3.3183
C      5.1066     16.4632      2.7973
H      1.0519     17.1585      7.9149
H     21.5118      7.9971      7.5256
H     11.3522     12.3331      7.4598
H      7.9654     11.0787      6.3090
C      1.4782     19.1078      8.6168
C     11.0232      5.3807      5.6418
C      3.4821     13.7831      2.2223
C     14.3604      4.3099      5.3594
C      1.8446     19.0143      7.0736
C      2.4698     16.6680     -0.0142
H     -1.2668     18.7793      0.6495
H      4.7238     14.9518      0.6473
H      2.2406     12.9680      0.1226
H     12.1805      1.5651      2.5554
H     10.0912      9.3406      7.6354
H      5.2563     14.0084      3.8804
C     -0.5855     21.8263      5.4624
C     -4.2475     20.0968      9.7875
H      5.7148     19.6821      2.1941
H     32.6591     11.4536     13.7201
C      8.8779     12.1782      7.6165
H     10.0803     19.6914      2.0811
H      9.7199     10.3916      4.7126
H      6.2032     15.0949      9.7296
C     -0.5757     19.9320      7.3698
C      0.2289     16.2398      5.0258
O      9.0114     18.4046      4.2780
C     -1.7012     20.6887      5.5508
C      6.3910     15.3948      7.5710
C      5.5503     15.0055      6.5742
C      3.7392     13.6129      5.6356
H     18.8569      7.8158      7.9304
H     18.5211      3.9203      8.8239
H     21.7709      9.4369      8.4869
H     11.6120     10.2300      6.7103
C      1.7458     17.4405      7.0015
H     11.1285      2.3839      0.3553
C      3.6671     18.1396      4.9419
C      3.1397     15.5490      8.7300
H     33.6292     10.4083     14.5570
C     21.0101      7.4125     11.1044
H     16.3054      5.5998      7.9218
H     23.0389      7.0955     11.0511
H      7.3583     15.7308      7.6363
C      3.9553     15.8791      4.7966
C     30.1343      9.2361     18.8247
C      7.2303     13.1846      8.5333
C     20.9654      8.9949      7.9188
C     18.3512      4.8566      8.1599
C      6.1175     14.3905      8.8166
H     -0.4541     14.5881      9.2797
H     -2.1905     20.5448      9.2784
H     13.5977      4.2487      1.4938
H     31.5548      8.9465     12.9625
H     12.9800      3.4449     -0.1105
C     27.5050     10.1215     13.7593
H      2.9356     17.5608      9.1082
H     10.7977      9.6603      3.4204
270

C     32.3787      9.2073     13.6980
C      4.1935     14.2628      6.8851
C      2.7601     15.6897      0.9842
C      7.4039     17.9169      2.6506
H     10.1105      3.4888      2.8399
C      7.5743     16.4715      2.7176
C     16.0645      3.9152      5.4224
C     19.3754      9.7660     11.2041
C     28.6255      6.9203     19.3445
C      5.9530     14.8096      4.1329
C     19.0771      8.5277     10.2106
C     26.8876      8.8466     13.6744
N     -0.4023     16.1112      6.3290
C      0.8162     19.0021      0.1959
O     11.4067      2.3399      2.6759
C     16.1298      3.8222      6.8933
H      0.8248     18.7268     -0.9954
C     28.4820      6.0824     17.2322
C     29.1617     10.4385     16.9405
H      1.7318     13.1402      9.8427
H     10.7767      2.8300      5.6575
H      6.1613     18.1023      3.2377
H     20.1594     10.8565      9.3456
C     29.8569      9.2325     16.4233
H     28.3312     11.4392     12.3462
H     20.3352      9.6214     11.3400
H      7.8015     16.2818      3.7979
H     25.6880      7.3370     10.9590
H     11.7027      4.9250      6.5558
C      3.0391     15.0824      7.3144
H     -4.0819     22.3301      1.2307
H      6.8245     14.5722      4.2674
O     27.9619     10.5315     14.8269
C      8.5807     13.4167      8.1712
C     19.3438      5.9640      9.9117
H      2.3363     18.6208      8.9615
C      6.1069     15.6553      2.9298
H     18.8385      5.1516      7.1152
H     18.7151      9.7370     12.0063
H      5.2835     10.9109      6.9608
H     16.7274      7.8432      9.8888
C     30.0913     10.5966     17.9939
C      9.9352      8.1924      4.8360
O      1.9215     21.2636      5.1472
C     -1.8728     20.2941      6.8556
C     21.4492      8.4040     12.1722
C     33.0408      7.9132     13.1351
C     19.1108      7.1010     12.2142
H      5.1523     17.0813      1.6682
H     30.1813      9.7696     14.2054
H      1.0188     12.5885      3.0801
H     -4.5420     18.0562      9.6322
H     28.3659      9.8797     17.5729
C     19.5950      7.2583     10.7732
C      8.2999     18.9224      3.5740
H     33.3709     10.9913     12.6119
C     11.6922      6.4321      4.9668
H     28.2555      7.9197     21.3554
H      4.4416     13.4813      2.7033
H     18.6489     10.9749      9.3975
H     30.0955      5.2470     15.1153
C     10.3597     11.7300      7.2399
C     18.2287      5.7585      9.3073
C     28.7630      7.4347     17.8552
C     17.4738      5.5203     13.2339
C     30.5544      9.2805     15.0787
H      9.6605      7.1174      4.9394
H      8.2405     21.1731      3.3395
H      4.0865     14.5698     10.2583
H     31.9815     11.0085     18.4224
C     -0.1110     15.6543      8.5661
C     26.3207      8.5666     12.3113
C      1.4567     14.5449      7.0212
C     -0.3661     19.2614      1.2198
H     18.1800      7.5428     12.1029
H      9.2682      3.2372      5.7243
H      5.8153     17.9348      5.3007
H     19.5416     11.9979     10.8323
C     22.7326      7.7516     12.8289
O     27.6665     10.8670     12.5095
C     19.6752      8.5787      8.5494
C     28.7293      8.2444     20.2412
C      3.6375     14.3636      9.3214
C      3.4022     14.4349      4.5861
H     -2.5354     23.2201      2.0418
H     16.5584      6.0118     12.9088
C      3.9208     16.4932      3.3090
H      8.6288      9.2843      5.7812
C     -2.2882     21.7048      0.5458
C     23.7947      7.3487     11.7070
H     21.5665      6.6623     11.7979
H      0.5485     23.4021      5.8243
C      5.3701     15.7794      5.2746
H     31.3031     12.0495     16.7523
H      8.2546     16.0635      2.0541
C      3.0258     12.4415      8.1538
C      5.4006     11.8052      7.3844
C     11.2043      4.8933      3.0668
C     28.8944      9.5907     19.7664
C      2.4744     16.4011      2.3736
C     17.4801      8.7362      9.8854
H      2.7864     11.3428      7.8969
H     28.8623      8.1879     13.7224
H      9.4668      4.7262      1.4436
H     26.1459      9.6553     11.9967
H      2.2036     16.0978     -1.0596
O      5.0205     19.9550      6.7074
C      0.5488     21.0391      4.6253
H     29.1046     10.2982     20.4793
C     10.5167      8.5064      3.4661
C     11.0845      7.4632      2.7447
H     18.9672      9.2897      8.1940
C     -2.9937     20.0487      7.6301
H     28.3568      7.5089     11.6546
H      5.8469     14.9447      1.8501
H     -0.7993     16.5595      8.5755
C      3.6423     14.6385      1.0388
C     -0.0807     21.5929      1.9725
C     11.4422      3.0415      1.3857
C     -0.0452     16.6845      3.7396
C      7.8599     11.4029      7.1067
H      1.1688     13.1281      4.3523
H     -3.8881     19.5671      7.3425
H     28.4918      9.9869     18.9679
H     27.6603      7.1161     13.2367
O      0.2233     22.4783      6.4970
C      6.7114     12.2541      7.5272
C      0.5855     19.6807      6.6783
C     27.9937      7.7924     13.9887
C      0.6007     20.7623      2.9623
H      9.4392     13.7003      8.7243
C      2.7166     14.1056      3.4811
C      0.0933     15.2557      7.1849
C     10.4236     10.1651      6.7793
C     10.1925      3.1563      4.9385
C     31.1994     11.3462     17.5507
C      3.1757     16.7067      9.4882
C     12.9990      3.3789      0.9298
C     -1.1831     20.8870      1.5116
C      4.4889     12.5173      8.1342
N      1.7743     12.8379      3.6861
H      3.6813     12.4756      0.1654
C      3.2139     13.4591     -0.2052
O     29.7729      6.1577     15.1461
C      9.3692     19.7676      1.0844
H     31.0183      9.2250     19.3788
H      1.2615     13.8056      7.9061
C     10.3720      4.1303      2.0437
C     -3.0753     19.8746      9.0268
H      1.3811     13.8122      6.1146
H      7.8474     17.8984      0.9156
H     20.5679      9.4367      7.1707
C     -2.9675     22.4870      1.4249
H     17.5246      9.2742      9.0204
H      1.3758     20.0307      8.9681
H     10.1388      5.4798      5.8359
H     -1.3541     22.7286      5.0031
H     27.1903      7.9518     10.4145
H      3.2495     13.7045     -1.3276
H      0.7765     15.9680      9.1036
C     27.8439      7.6820     15.4162
H     17.4845      6.8362      9.2834
C     27.5791      8.2372     11.3888
C     19.4470     10.9957     10.1460
H      2.9730     16.8815     10.5777
H     28.8330     11.4858     16.5898
C      4.2438     21.1091      4.6041
C      7.7306     20.2019      2.8737
C     33.0023     10.7561     13.7093
C     31.7721      8.7453     15.0599
C      3.9780     18.9607      6.3058
C      2.0337     17.7935      2.0188
C     18.8048      5.8702     13.1344
C      5.5730     20.1959      4.3258
C      7.8234     20.0178      1.3531
C     17.1541      4.7979      7.3734
C      1.7444     17.9571      0.6785
H      7.9192     20.8408      5.8414
C      5.9454     20.2966      5.6684
H      9.3822     18.8181      0.6174
H     13.5512      2.4090      1.0305
C      7.0772     18.6229      1.1567
H     -0.3718     15.8248      3.2845
O      7.0189     20.5142      6.2364
H     21.5479      9.4378     12.0431
H     -0.4021     22.4176      2.6229
H     17.6287      4.1549     13.2153
H      3.9744     18.2029      3.9824
C     25.1355      7.8968     11.6826
H     -5.3097     18.7811      8.3011
C     28.5019      6.1042     15.6203
H      0.4371     18.4837      8.7402
C     10.8281      4.3499      4.4421
C     13.1928      6.7368      5.2626
H     16.8731      9.2227     10.7133
H      3.7550     12.6500      5.4964
C     14.1785      5.5800      4.5130
H      3.1018     12.7795      2.0878
H     -0.5351     19.4130      8.4607
C     -5.0808     18.8812      9.3734
C      4.8209     13.7340      8.5444
O      6.2627     17.0498      5.4291
C      6.2600     20.3721      2.9534
C      9.6391      9.5660      5.4003
C      0.0404     19.2608      2.6275
C     11.6064      6.1757      3.3773
H     29.6361      8.0979     20.7153
H     28.1473      9.2509     11.0626
H      9.9577      2.4633      4.0689
C      2.7018     13.1231      9.3964
C      0.6797     18.0222      3.2241
C      5.1966     16.6196      2.7412
H      1.0001     16.8992      7.7738
H     21.6234      8.0568      7.6595
H     11.0060     12.4287      7.0168
H      7.7760     10.8185      6.3519
C      1.3537     18.9640      8.6111
C     11.1471      5.2566      5.6061
C      3.4038     13.6976      2.2886
C     14.4507      4.3149      5.4068
C      1.6972     19.0381      7.1720
C      2.5061     16.6612     -0.0777
H     -1.0821     18.7586      0.6757
H      4.8651     14.8742      0.6971
H      2.2037     13.3916     -0.1547
H     12.1532      1.6978      2.7343
H      9.9297      9.9369      7.6641
H      5.3599     13.9946      3.9393
C     -0.5117     21.8680      5.3135
C     -4.2511     20.1702      9.7424
H      5.8986     19.6760      2.1777
H     32.3148     11.4922     13.9830
C      9.0173     12.0307      7.5865
H      9.9047     19.5726      1.8981
H      9.9042     10.6488      4.9774
H      6.3166     14.9485      9.6202
C     -0.5725     19.8829      7.3983
C      0.3186     16.3460      5.1858
O      8.9894     18.4614      4.3027
C     -1.6555     20.7716      5.3967
C      6.2780     15.3114      7.5325
C      5.5133     15.0198      6.5356
C      3.6424     13.6104      5.7047
H     19.3610      7.6066      8.1233
H     18.8734      4.2922      8.7997
H     21.6836      9.7794      8.6967
H     11.4609     10.2349      6.5881
C      1.7382     17.5293      6.9458
H     10.8950      2.6072      0.6759
C      3.6859     18.1859      4.9399
C      3.1145     15.5389      8.7340
H     33.6842     10.8356     14.5900
C     21.1028      7.3123     11.2003
H     16.6484      5.5147      7.8197
H     23.5115      6.8571     10.4865
H      7.0927     16.0789      7.5414
C      3.8825     15.8981      4.6736
C     30.1720      9.3109     18.8399
C      7.1125     13.2764      8.5806
C     21.0322      8.9266      8.0684
C     18.4410      5.0007      8.1759
C      6.1474     14.4927      8.7565
H     -0.5651     15.0117      9.0840
H     -2.1609     20.6286      9.2450
H     13.5315      4.0456      1.4437
H     31.3072      8.9397     13.2705
H     13.0172      4.0990     -0.1349
C     27.5856     10.1287     13.7069
H      2.7733     17.6136      9.2834
H     10.7241      9.4727      3.0118
