268

C     20.1758      9.0328     13.8685
N     -1.6974     10.3678      1.6563
C      3.7698      1.4842      7.0516
C      1.7687      2.9738      1.5169
C      7.2404      4.8763      2.3907
H     -3.6060      4.5483      2.3200
C      6.8762      3.7674      2.8683
C      3.4511      3.9596      5.2822
C     -6.1218      9.9417     10.8226
C     16.3941      7.0749     19.4608
C      5.8819      1.6259      3.7359
C     -6.9854      8.9829      9.9660
C     13.9216      8.7447     13.9492
N     -0.3531      2.5068      6.2031
C      0.4620      5.8488      0.5371
O     -1.6583      2.3700      1.4730
C      3.2534      3.9136      6.7836
C     15.7337      6.1502     17.4476
C     16.6014     10.3882     17.0997
H    -11.9338     13.2965      9.5442
H     -3.4355      3.5930      3.9266
H     17.5284      6.5444     15.4781
H     -6.8610     11.1718     12.6285
C     17.0764      9.1027     16.5352
H     -8.6553      7.5322     11.1586
H     -5.8131     10.9720     10.2804
H      6.5113      4.0913      3.8235
H     12.8671      7.5154     10.6730
H     -1.1701      4.5571      6.6540
C      2.9403      2.7554      7.5840
H      6.7079      0.7438      3.9985
O     14.9840     10.1218     15.3970
C     -4.7861     13.0345      8.5893
C      6.7404      5.8580     10.0237
H      2.3643     -0.0382      5.9620
H      1.7607      7.9738      8.7834
C      6.1284      2.5583      2.3613
H      6.4294      5.2617      7.5969
H     -5.3572      9.4996     11.5110
H     -7.9812     11.8908      9.5809
H     -7.7036      7.1887     10.0050
C     17.6700     10.8783     18.1033
C     -2.9844      8.3404      4.9024
O      1.9748      8.5291      4.9470
C     -1.3586      8.0401      7.2148
C      8.6936      8.0827     11.8916
C     20.6520      7.8118     13.0533
C      6.5265      6.9772     -0.5581
H      4.8659      3.7850      1.3070
H     17.8530     10.5778     15.2871
H      1.8258     -0.8315      3.2168
H     -5.5241      5.8928      8.0942
H     15.4125     11.0287     15.2483
C      7.4090      6.3278     11.4167
C      7.6195      5.7880      3.4303
C     -1.0045      6.5427      5.3861
H     15.6513      8.6616     20.8378
H      2.8903     -0.0224      1.8332
H     -7.2363     11.5764     10.9320
H     15.2880      7.1715     13.3498
C     -3.1955     11.3508      7.4959
C      5.1884      5.6443      9.6457
C     15.9267      7.5955     18.0071
C      4.5361      5.9632      0.2537
C     17.8921      9.4363     15.2982
H     -3.3454      7.3337      5.2456
H      8.4353      7.5431      3.9702
H     -9.4617     13.7245     10.2569
H     -6.4059     12.4273      9.8454
H     17.7311     12.7427     17.0865
C      0.2772      3.2424      8.5132
C     13.3160      8.4648     12.5184
C      1.6518      1.5314      7.5882
H     -3.1955      8.7605      9.5496
C     -0.6255      6.3048      1.4981
H      5.9356      7.8013     -0.9820
H     -2.7715      2.2415      4.7567
H     -8.2716     10.2551     11.9655
C     10.2208      7.3450     12.6516
O     14.8774     11.1645     13.4170
C     -6.3494      8.5765      8.7198
C     16.6504      8.2819     20.3945
C     -9.6134     14.1360      9.2026
C      2.8113      1.7309      4.6926
H     -2.4336     10.6034      2.2784
H     -1.9247     10.3713     -0.3620
H     -7.0137     12.1552      6.6847
C      3.8416      3.6220      3.1815
H     -4.7876      8.9954      5.6514
C     -1.9436      8.1846      0.6558
C     11.1733      7.1846     11.5016
H     -2.7808      9.5699      7.3872
C      5.2304      2.4019      4.8745
H      4.2591      0.3367      5.7391
H     -4.6003     13.9220      8.1567
C    -10.2567     12.0628      8.4021
C     -8.0206     11.3825      8.4762
C     -2.1131      5.3039      3.6697
C     16.8044      9.5461     19.6454
C      2.3319      3.6587      2.7819
C     -7.9420      8.1466     10.3721
H     15.8294      8.7590     14.0286
H     -1.7590      5.3030      1.5486
H      1.7476      3.9388     -0.6555
O      5.5845      6.5542      6.4687
C      0.7044      8.0928      4.5801
H     -8.4558     10.5013      8.7757
C     -2.6890      8.6729      3.6274
C     -1.8162      7.7618      3.0941
H     -6.9939      8.1119      7.9371
C     -2.4964      7.5639      7.8506
H      2.3899      4.3005      4.9799
H     13.9798      9.2249     10.5146
H      6.2094      2.2610      1.3204
H      0.9606      3.3607      9.4145
C      2.8820      2.0775      1.0545
C      0.0405      8.5570      2.0608
C     -0.6667      3.0653      1.2746
C     -0.2719      3.7694      3.9995
C     -5.5981     10.8500      7.4495
H     -3.1486      6.9942      7.1197
H     16.0138      9.7430     18.7710
H      0.5475      5.6973     -0.5241
O     -0.0114      9.7689      5.9892
C     -6.7930     11.8501      7.6750
C      0.9807      7.1370      7.1066
C     15.1539      7.9270     14.0411
H     15.3610      8.5722     15.9178
C      0.6727      7.6686      3.1223
H     -4.0548     13.0710      9.3645
C      2.7730      0.9505      3.4506
C      0.4251      2.2044      7.4953
C     -2.9470     10.1706      6.4382
C     -2.8831      3.4441      4.7406
C     18.2789     12.0620     17.8871
C     -9.9891     16.5942     10.1381
C      0.5694      2.7151      0.7158
C     -1.1173      7.7977      1.7192
C     -8.9489     12.1955      7.8311
N      2.2035     -0.2815      3.9541
H      4.1382      2.3086     -0.6987
C      2.9275      1.8604     -0.5486
O     16.9744      5.7358     15.5376
C      9.5770      6.1361      0.2491
H     18.9843      9.5442     19.2325
H     -0.0721      1.1961      7.7609
C     -2.5950      5.1203      2.3093
C     -3.0796      7.7586      9.1163
H      1.0525      0.9178      6.6273
H      7.3531      4.5629      0.6833
H     -4.5466      9.2451      7.4896
C     -1.8740      9.6417      0.5267
H      4.8048      5.1497     10.4087
H      1.4975      6.4204      9.3262
H     14.6670      9.9434     11.7012
H      2.1165      2.4502     -0.8537
H     -0.6346      2.9437      9.0814
C     15.1610      7.4439     15.5428
H     -1.0960     11.4612      1.6133
C     14.0703      9.0118     11.4980
C     -7.3553     10.8464     11.6957
H     15.5639     10.6948     17.2401
C      4.2967      7.9666      4.4220
C      7.5453      7.1497      3.3009
C     21.5015      9.7293     14.4003
C     19.0844      8.6914     15.0303
C      4.4026      5.9562      6.2373
C      1.7713      5.0260      2.4488
C      5.9237      6.0858      0.5100
C      5.6454      7.6201      4.5351
C      8.2905      6.5912      0.9607
C      4.0840      4.9031      7.5500
C      1.3918      5.1289      1.0429
H     -2.4502      5.3049      6.4248
C      6.3457      7.2118      5.7118
H      9.9042      5.0835      0.7712
H      0.4478      2.4216     -0.3570
C      7.1619      5.6384      1.1115
H     -0.9776      3.3104      3.3900
O      7.5031      7.4019      6.1212
H      9.2635      9.0984     12.0400
H     22.0913      9.6912     13.6110
H      1.8487      3.1243      3.7366
H     -0.3599      9.3567      2.5114
H      3.0155      5.5026     -0.8447
H      4.9564      5.2596      4.3573
C     12.4312      7.4879     11.6053
C     15.7767      6.1236     15.9886
H      3.5182      6.8836      9.1524
C     -1.7819      4.3221      4.5299
C      0.5438      6.9267      5.4846
H     17.2507      8.3395     21.1849
H      1.7181      2.1984      5.0454
C      1.3203      5.7270      4.8635
H    -10.8972     11.1352      8.0597
H      1.5229      0.5624      2.2413
H     16.7211     11.1774     16.0858
H     -0.3432      7.1909      8.9114
C     -5.0518      5.8509      9.0234
C     -8.5840     13.5890      8.1864
C      6.2983      7.9263      3.3029
C     -3.9138      9.5369      5.3786
C     -0.1661      6.2743      2.9861
C     -1.3022      6.5641      3.8824
H      3.9803      6.6921     -0.3058
H     -3.3754      3.3379      5.5217
C    -11.0087     13.4842      8.7560
C      0.6644      5.1334      3.4782
C      4.8528      3.4529      2.2630
H      1.6929      4.2432      8.0024
H     -5.5665      7.7638      9.0223
H     -2.3434     12.0815      7.5360
H     -5.9601     10.7681      6.4615
C      2.2808      6.8750      8.9959
C     -1.5411      5.1319      5.8651
C      2.3804      0.9033      1.9373
C      1.2450      4.4549      5.8488
C      2.1641      6.3159      7.4050
C      2.4829      4.6408     -0.2481
H     -1.3422      5.8462      0.8147
H      3.6981      2.5157      1.4179
H      2.8084      0.7464     -1.0759
H     -1.9890     10.2582      5.9316
H      5.0510      0.9181      3.1728
C     -0.5427      9.0526      4.9524
C     -4.1554      6.9624      9.5553
H      3.9277      5.6246      1.1094
H     21.5171     10.5608     14.9667
C     -4.5568     11.6877      7.8807
H     -2.9003      6.1474      2.4367
H     -4.0288     10.1891      4.4376
H     -7.4139     14.8968      9.2547
C     -0.1750      7.2653      7.8303
C      0.4166      3.3344      5.3701
O      8.1198      5.3164      4.4746
C     -1.6384      8.0363      5.6977
C     -6.6114     14.7660      7.0898
C      5.2066      2.1140      6.1959
C      3.3077      0.8003      5.8658
H      8.2166      6.0399      5.1254
H     -6.2218     15.6573      6.7539
H      5.2542      3.7387      8.3528
H     -5.1497     10.1211      9.4679
H     -0.6771      9.5346      6.5911
H     19.1181     12.3957     18.5054
C      1.8719      4.7477      7.0907
H     -0.6061      4.0409      1.7099
C      4.1011      5.4037      4.9170
C     -9.5884     15.6645      9.0951
H     21.9298      8.9835     15.0354
C      8.3850      7.3507     10.8736
H      3.3694      5.2341      8.4603
H     10.4635      6.7497     10.6008
H     -5.8064     14.1410      6.6516
C      3.8796      2.9612      4.4592
C     17.9105      9.9392     19.0571
C     -6.3356     12.8885      8.8228
C     -5.3224      9.6621      8.3857
C      5.4926      4.8527      8.4301
C     -7.0984     14.0667      8.3690
H      0.1475      4.1211      7.9353
H      3.1832      4.1886      0.2124
H     19.7013      9.8409     13.1785
H      7.9110      5.4602     11.8316
H     -1.2648      2.9790      6.4395
C     14.5710     10.1676     14.0900
H    -10.3751     17.4794      9.7849
H     -3.2969      9.5353      3.1542
268

C     20.2571      9.0171     14.0070
N     -1.9101     10.4600      1.3201
C      3.9945      1.5401      6.9247
C      2.0841      2.6006      1.4211
C      7.2834      5.0749      2.5628
H     -3.4685      3.7039      2.9565
C      7.0820      3.9081      3.1433
C      3.5062      3.8817      5.4260
C     -6.2981      9.7758     11.2395
C     16.1765      7.2687     19.3757
C      5.7638      1.4660      3.7054
C     -6.7062      8.5846     10.4459
C     13.8711      8.7657     13.6136
N     -0.0852      2.3294      6.1131
C      0.3999      5.7866      0.5624
O     -1.6265      2.7867      1.1615
C      3.1266      4.0521      6.9932
C     15.6623      6.0701     17.5052
C     16.5458     10.4233     16.7724
H    -11.8348     13.6778      9.2024
H     -2.5470      3.2681      3.9315
H     17.5155      5.7419     14.9012
H     -6.2308     11.3678     12.5560
C     16.8188      9.1213     16.2234
H     -8.5630      7.9140     11.2865
H     -6.0884     10.4167     10.3425
H      7.6332      4.0483      4.0498
H     12.9456      7.4514     10.5368
H     -0.7865      4.7441      6.6404
C      2.9148      2.7274      7.6393
H      6.8122      1.0399      3.7534
O     14.6289      9.8243     15.4061
C     -4.5293     13.0867      8.6412
C      6.7506      5.8758      9.8577
H      2.5122      0.4027      6.3253
H      1.9000      8.1023      9.2226
C      6.2137      2.7087      2.9385
H      6.1359      4.2957      7.4380
H     -5.3994      9.2780     11.5749
H     -7.6557     10.7799      9.6545
H     -8.1380      7.3901      9.6869
C     17.3851     11.0964     17.7206
C     -2.9282      8.4074      5.1635
O      2.0724      8.4688      4.7566
C     -1.5553      8.1760      7.3385
C      8.8072      7.9845     11.9647
C     20.7428      7.7737     13.2034
C      6.4458      7.0994     -0.4193
H      4.7673      3.8199      1.1903
H     17.7580     10.0636     14.5879
H      1.6586     -1.0345      3.3716
H     -5.8107      6.2039      7.8686
H     13.6283     10.2265     15.7499
C      6.9803      6.4020     11.2044
C      8.0275      5.8595      3.5628
H      8.7363      7.2663      1.9018
C     -1.1450      6.6261      5.4499
H     15.6185      8.4685     20.7553
H      3.0240     -0.6112      1.4227
H     -7.1555     11.2423     10.9797
H     15.5181      6.8288     13.4853
C     -3.0470     11.3928      7.5245
C      5.6217      5.2901      9.3890
C     16.0650      7.5712     17.9594
C      4.7547      5.8927      0.2679
C     17.8374      9.2651     15.2121
H     -3.3802      7.5239      5.0971
H      8.3180      8.3008      4.0859
H     -9.6307     14.2394     10.2784
H     -6.3113     12.1661      9.8449
H     17.6387     12.3568     16.9161
C     -0.2556      3.3790      8.3032
C     13.2457      8.6301     12.1629
C      1.5682      1.6915      7.3233
H     -3.1045      8.8663      9.8061
C     -0.7304      6.1783      1.4325
H      6.0422      7.8086     -0.9893
H     -2.3293      2.0173      4.6123
H     -8.1017     10.4173     11.9070
C     10.1792      7.4664     12.4703
O     14.3857     11.0835     13.3817
C     -6.5256      8.8173      8.9295
C     16.6001      8.4468     20.0706
C     -9.8013     14.4299      9.2405
C      2.7356      1.7415      4.6670
H     -2.1779     11.5477      1.1154
H     -3.5797     10.1739      0.1959
H     -7.0619     12.0465      7.0542
H     -9.8871     16.4075     11.1457
C      3.9117      3.0625      3.0679
H     -4.2735      8.6794      6.5989
C     -2.0770      8.4277      0.3437
C     11.1436      7.2019     11.4169
H     -2.1744      9.6177      7.5454
C      5.0882      1.9082      4.9181
H      4.0687      0.2914      5.3636
H     -4.8283     13.9030      8.0197
C    -10.5267     12.3005      8.1749
C     -8.1207     11.3656      8.8425
C     -2.0911      5.1716      3.8854
C     16.6608      9.7479     19.5542
C      2.4815      3.3502      2.7322
C     -7.9529      7.9663     10.4254
H     15.9488      8.0508     14.5861
H     -3.0321      5.0972      2.0665
H      1.8326      3.8966     -0.5453
O      5.7615      6.8168      6.7579
C      0.5146      7.8746      4.5972
C     -2.5747      8.5433      3.6450
C     -2.0162      7.5517      3.0113
H     -7.5464      9.2377      8.2863
C     -2.8906      7.7539      7.8472
H      2.4741      3.9080      5.0019
H     14.6123      8.8923     10.2030
H      6.8374      1.9712      2.2348
H      0.6158      3.8436      8.7324
C      3.0420      1.5949      0.9017
C     -0.2488      8.5412      1.9693
C     -0.4615      3.2264      1.5521
C     -0.0471      3.9595      4.2752
C     -5.5330     10.9722      7.7655
H     -3.2218      7.4026      6.7152
H     15.7940     10.2585     19.8565
H      0.4170      5.7928     -0.5955
O     -0.0062      9.7807      6.0794
C     -6.5179     11.9568      8.0813
C      0.6226      7.0411      7.1950
C     15.1089      7.6543     14.0334
H     15.3200      7.8460     16.1258
C      0.4806      7.4560      3.1651
H     -3.7229     13.5486      9.3092
C      2.5474      0.6681      3.3636
C     -0.0101      2.0638      7.4260
C     -2.6549     10.1334      6.6465
C     -2.4252      3.1336      4.9438
C     18.4286     11.9049     17.6054
C     -9.6293     16.8390     10.0923
C      0.7566      2.4950      1.1080
C     -1.2645      7.8321      1.7023
C     -9.0527     12.3927      8.3193
N      1.9688     -0.2975      4.0264
H      3.7774      2.1751     -0.5475
C      2.7625      1.8551     -0.4733
O     17.0176      6.2145     15.6927
C      9.7140      6.2037      0.4769
H     18.7341     10.0878     19.0584
H     -0.6780      1.2078      7.9646
C     -2.7534      4.4187      2.8645
C     -3.2856      7.8629      9.1325
H      1.7228      1.5235      6.2456
H      7.2749      5.0045      0.2879
H     -4.5726      8.8869      8.2366
C     -2.5232      9.6940      0.3682
H      4.9300      5.4780     10.1725
H      2.1355      6.1104      9.4922
H     -1.1769      9.1919      4.1862
H     14.6769      9.9816     11.8927
H      1.7560      2.2918     -0.4347
H     -1.2195      3.0861      9.0524
C     14.7618      7.1674     15.4772
H     -1.6364     10.3168      2.2192
C     14.0946      9.2110     11.2437
C     -7.0701     10.7664     11.8962
H     15.4936     10.2817     16.9467
C      4.3844      8.2597      4.3063
C      7.9227      7.3831      3.4798
C     21.4219      9.4129     14.8920
C     19.1893      8.7707     15.1479
C      4.2799      6.1344      6.5246
C      1.7609      4.7409      2.4778
C      6.0026      6.3482      0.7313
C      5.7412      7.8222      4.5326
C      8.4471      6.6853      1.0410
C      4.0415      5.1761      7.7241
C      1.4652      5.0308      1.0677
H     -2.4647      5.3175      6.5356
C      6.4978      7.1989      5.5906
H     10.1315      5.0838      0.1579
H      0.1796      1.8056      0.5008
C      7.3879      5.5953      1.2862
H     -0.1908      3.2178      3.4834
O      7.7421      7.2020      5.8946
H      8.7415      9.1045     11.9554
H     22.1443      8.8985     14.7119
H      1.4199      2.9475      3.3231
H     -0.3216      9.5282      2.3445
H      3.0314      5.4241     -0.3913
H      4.6410      5.4107      4.3297
C     12.4652      7.5257     11.5691
C     15.6121      5.9795     15.9354
H      3.3694      7.2205      9.4591
C     -1.5431      4.3242      4.8126
C      0.3118      6.7122      5.6748
H     17.3256      8.1653     20.9677
H      1.9718      2.1922      4.7188
C      1.2623      5.6728      5.1917
H    -11.0550     11.3688      8.0970
H      1.3353      0.5299      1.6482
H     16.3563     11.0189     15.8699
H     -0.2738      7.4831      8.9962
C     -5.3918      6.3378      8.8818
C     -8.5171     13.9314      8.2981
C      6.6620      7.8867      3.1691
C     -3.6510      9.2827      6.0004
C     -0.1840      6.2169      2.8858
C     -1.3750      6.3929      3.6933
H      4.1382      6.1281     -0.8824
H     -3.2259      3.5363      5.6195
C    -10.9885     13.7388      8.4383
C      0.7658      5.0684      3.5573
C      4.9828      3.0147      2.0327
H      1.1316      4.7061      8.3681
H     -6.2063      7.8752      8.3849
H     -2.1795     11.7977      8.0489
H     -5.8234     10.7133      6.6884
C      2.3307      7.0812      9.0993
C     -1.4785      5.3036      5.9720
C      2.3122      0.4035      1.8382
C      0.7730      4.6764      6.1446
C      2.0159      6.6845      7.4315
C      2.4308      4.5741      0.2241
H     -1.4238      5.4253      1.5762
H      4.1859      1.1585      0.9517
H      2.6544      0.8334     -0.9018
H     -2.0602     10.6457      5.6513
C     -0.6928      8.8293      5.0172
C     -4.5849      7.2716      9.5449
H      4.2756      5.1176      0.7991
H     21.9407     10.3493     14.6870
C     -4.3886     11.8545      7.9952
H     10.2628      6.2641      1.2555
H     -4.4396      9.7292      5.1486
H     -7.2149     14.9928      9.7194
C     -0.3035      7.7882      7.9047
C      0.5036      3.4906      5.5589
O      8.6757      5.1807      4.6019
C     -1.5898      7.9970      5.9492
C     -6.3765     14.5444      7.1488
C      5.2566      1.9032      6.3101
C      3.3909      0.7894      5.8547
H      8.7691      5.7615      5.3630
H     -5.7357     15.4401      7.6282
H     -4.8020     10.0387      9.6036
H     -0.2511      9.3375      6.9502
H     19.0877     12.6570     17.9225
C      1.5605      4.9229      7.3557
H     -0.5767      4.3368      2.0387
C      3.9037      5.2819      5.1751
C     -9.9699     15.7405      9.1696
H     21.2128      9.3266     16.0388
C      8.2269      7.1870     10.9420
H      3.5211      5.7769      8.4568
H     11.1879      6.7715     10.5340
H     -5.5719     13.8737      6.6591
C      3.8593      2.6865      4.5092
C     17.7909     10.0452     18.7154
C     -5.9591     12.9575      8.9926
C     -5.4748      9.6828      8.5443
C      5.3926      4.5523      8.3734
C     -7.1673     14.2869      8.5801
H     -0.7018      3.9554      7.6940
H      3.0058      3.7239      0.2075
H     19.7695      9.8321     13.1677
H      7.5328      5.6439     11.7127
H     -1.0857      2.3826      5.9870
C     14.4256     10.0453     13.9926
H     -9.3079     17.9142     10.0489
H     -2.7966      9.5530      3.2281
