265

C     19.9053      8.4309     13.3697
N     -3.0169     10.3925      1.6724
C      3.9201      1.2878      7.1792
C      2.1424      2.4885      2.0196
C     -5.2287     17.2014      1.8796
H     -3.1276      6.3589      2.3190
C     -5.5497     15.9517      2.4536
C      3.2444      3.8986      5.2958
C     16.2644      7.3460     19.5145
C     -6.4455     14.5691      4.2644
C     -6.7235      8.4681      8.7622
C     13.6668      8.7821     13.7554
N      0.0588      2.9695      6.3207
C      0.6547      6.3801      0.7572
O     -1.4397      2.9679      1.8621
C      3.0763      3.9760      6.6495
H     13.0766      7.1166     10.8370
C     15.5676      6.2224     17.4667
C     16.9707     10.4023     15.6832
H     -1.8015      2.2672      5.9257
H     17.4827      5.6245     14.6898
C     17.1948      9.0550     15.8478
H     -7.4934      7.3202     10.6982
H      7.2503      2.2082      8.7917
H    -10.4688     17.1573      9.6878
H     -1.4834      5.1277      7.2136
H     -6.7394     14.2415      9.1729
C      3.2141      2.7990      7.5999
H     -5.4462     14.3420      4.6327
O     14.2696     10.8745     15.3911
C     -5.6625     12.0256      9.4522
C      6.4686      6.0170      9.4489
H      2.7822     -0.4992      6.3546
H      3.8585      5.3412      8.2784
C     -6.7077     15.3779      3.0346
H      5.1846      3.3715      7.3410
H     -9.6605     11.2237      9.3681
H      1.5540      7.6325      9.3646
C     17.3690     10.7855     17.0469
C     -2.9009      8.6356      5.2280
O      2.0053      8.7019      4.8352
C     -1.2966      8.5151      7.0868
C      8.9585      7.7935     11.4769
C     20.8071      7.4232     12.7151
C     -6.1982     19.5115     -1.2383
H     -7.4165     16.3578      1.6647
H     17.2749      9.4047     14.0447
H      2.5531     -1.2213      5.5617
H     -4.8572      6.7139      8.0623
C      7.6932      3.0980      8.7262
H      0.9635      0.9486      2.0848
C      7.4970      6.2482     10.4701
C     -4.8504     18.0922      2.8145
H     -4.7440     20.2945      1.9243
C     -1.2394      6.7320      5.1978
H     16.9776      8.5245     21.1251
H     16.8032     10.9183     14.6325
H      2.4052      5.8950      0.5088
C     -3.6906     11.2179      7.7764
C      5.9994      4.7387      9.2462
C     15.9880      7.6762     17.9412
C     -8.1039     18.2943     -0.0981
C     17.7324      8.5386     14.6010
H     -3.5628      7.8205      5.8601
H     -4.5118     20.0647      3.4721
H     -8.9053     13.8049     10.5906
H     -8.0007     10.1845      9.0142
H     18.8667     12.2138     16.9101
C     -0.2938      3.3421      8.5436
H     19.2567     10.0999     14.5369
C     13.2219      9.0745     12.2516
C      1.7653      2.0151      7.6781
H     10.9190      6.8983     10.5827
C     -0.5539      6.4191      1.4960
H     -7.2061     20.0640     -1.2562
H     -2.8630      2.8002      5.1333
H     19.8241      8.9121     12.4195
C     10.1125      7.3240     12.4708
O     15.4601     10.6290     13.5457
C     -5.9645      8.4667      7.6802
C     17.0696      8.3905     20.0555
C     -9.4575     14.5276      9.7037
C      2.4233      0.9554      4.4748
H     -1.9102     10.4229      1.5619
H     -3.4102     11.1122      1.0914
H     -6.6287     13.1562      6.4280
H      3.3794      7.4330      9.3649
C      4.1223      3.4978      3.3547
C     -2.4071      8.2603      0.7514
C     11.3995      6.9651     11.5485
C     -7.7693     14.9196      5.1457
H     17.5799     13.0168     16.2307
C    -10.9671     12.5246      8.7416
C     -8.6848     11.1264      7.3134
C     -2.0295      4.8695      3.9503
C     16.8576      9.8946     19.4647
C      2.6925      3.6131      2.6696
C     -7.2751      7.2742      9.5457
H    -11.6183     12.2319      9.4453
H     15.6578      7.5580     13.4526
H     -4.7597     17.4214      5.2039
H      0.7063      3.2428      0.3497
O     -7.0882     19.5697      6.2274
C      0.6846      8.2128      4.5060
C     -3.1910      8.4926      3.7881
C     -2.4718      7.2625      3.0762
H     -5.0411      9.8321      8.7026
H     -4.6727     15.8013      3.4985
C     -2.4531      8.6066      7.7644
H      2.2882      3.9495      4.4965
H     -8.6510     16.6172      1.1310
H      0.4679      3.4675      9.5793
C      3.0160      1.3141      2.0080
C     -0.2546      8.7159      2.1424
O     -8.8271     17.1190      0.1623
O      7.4248      4.0946     11.0239
C     -0.1334      3.3121      1.8269
C      0.1435      4.0463      4.0953
C     -6.0246     10.7562      7.3024
H     15.5875      9.9106     19.2956
H     -0.8937      9.6874      4.0338
H     12.3290      8.6833     10.6800
O      0.3702     10.2562      5.6129
C     -7.6113     10.8387      8.2576
C      0.8828      7.1620      6.7327
C     14.5396      7.5447     14.0046
H     15.6865      8.3416     15.6953
C      0.5837      7.8664      3.1035
H     -4.9146     12.6458      9.0199
C      2.4119     -0.2481      3.7957
C      0.4726      2.7436      7.5374
C     -3.0526     10.7698      6.6712
C     -2.3832      3.1811      5.9789
C     17.6588     12.2208     17.1972
C     -9.5473     16.8165      9.8377
C      0.7421      2.2750      1.9933
C     -1.3646      7.7047      1.6810
C     -9.4658     12.0335      8.6127
N      2.3655     -1.2588      4.5905
C      3.5749      1.4510      0.5201
O     16.9841      6.2032     15.3668
C     -3.2967     19.1667      0.4281
H     -6.9506      9.4610      5.8622
C     -2.8302      4.3072      3.0501
C     -2.7586      8.6556      9.1919
H      7.9525      3.8782      7.9928
H     -4.7420      9.2914      6.2188
C     -3.2792      9.1874      1.0540
H     -8.1863      6.9894      8.9198
H      1.8113      6.0295      9.5133
H     -0.9229      9.7153      2.4449
H     13.9807      9.3370     10.5055
H      4.0526      0.5103      0.4434
H     -1.0086      2.2563      8.8101
C     14.9909      7.5902     15.4199
H      2.8629      1.9833     -0.0298
C     14.1152      9.6647     11.4914
H      8.3265      5.6075     10.9891
H      2.0165     -2.0606      4.0046
C     -8.6429     21.2608      4.3614
C     -5.2156     19.5832      2.6334
C     20.3839      9.6567     14.4003
C     18.8900      7.8381     14.5303
C      4.1318      6.0641      6.3236
C      1.9301      5.2399      2.5871
C     -6.5174     18.3771     -0.1793
C     -7.3735     20.0634      3.9456
C     -4.5937     19.2124      0.5125
H     14.9699      9.9769     12.2734
C      4.1801      4.9555      7.4064
C      1.6549      5.3011      1.0917
H     -2.9418      8.8786      6.9138
C     -6.4466     19.9157      5.1434
H     -2.6507      3.9099      2.0606
C     -5.4523     18.0997      0.6727
O     -5.0521     20.1147      5.3616
H      8.9928      8.8786     11.5114
H     21.0051     10.0346     15.1485
H      0.5999      3.2083      3.7292
H      1.3458      4.2077     -0.6594
H      4.5834      5.5874      4.4840
C     12.4298      7.9364     11.2514
H      6.4121      5.3719      6.9886
C     15.6882      6.2614     15.9672
C     -1.9232      4.3733      5.4755
C      0.4469      7.0477      5.3051
H     -7.4170      9.2835      8.2093
H      2.1900      1.7034      3.8557
C      1.2017      5.9239      4.7956
H    -11.4553     12.3142      7.6155
H      1.9726     -0.8048      1.4559
H     13.5672     10.5211     16.0046
H     -2.0247      7.9357      9.6499
C     -4.8860      7.5715      7.8743
C     -8.9271     13.5275      8.6411
C     -6.3724     20.3760      2.8227
C     -3.2308     10.1064      5.3979
C     -0.2307      6.3666      2.9078
C     -1.6064      6.2447      3.8572
H     -2.7128     11.3401      8.5303
H      2.6958      3.7688      0.6126
H     -8.8337     18.7007     -0.8405
H     -2.8725      3.1689      6.9237
C    -10.9029     14.2583      9.0237
H     -2.1220     11.1783      6.7247
C      0.8365      5.2139      3.4418
C     -7.8245     15.9036      2.5060
H      1.5090      4.7097      8.1961
H     18.0594      7.8963     19.8863
C      6.9540      3.8766      9.7395
H     -6.4210     11.7276      6.7776
C      2.2286      6.9028      8.9549
C     -1.3630      5.4798      6.1854
C      2.1557     -0.0234      2.3139
C      0.9650      5.0338      6.0718
C      2.1050      6.6372      7.3247
C      1.5636      3.9980      0.3003
H     -1.2002      5.4747      1.2270
H      4.0675      1.1772      2.6165
H     -2.6775      9.8071      9.5317
H      4.2403      2.1588      0.3262
H     -4.0751      7.5076      7.3244
H      8.6521      2.9191      9.3269
H     -2.5140     10.2961      4.6162
H     -6.5346     13.3964      4.1197
C     -0.3645      9.1400      4.9543
C     -4.1486      7.7769      9.0503
H     -8.4666     19.2015      0.4329
H     -4.2870      8.4430      3.3533
C     -5.0507     10.8690      8.5353
H     -3.6026      3.7937      3.8346
H     -4.1536     10.1661      4.8682
C      0.0639      8.0252      7.6603
C      0.2187      3.7909      5.4979
O     -4.8568     17.9464      4.1950
C     -1.3979      8.4123      5.5563
C     -6.7003     13.9847      7.3454
C     -7.6969     14.3911      6.4308
C      2.8370      0.7658      5.8905
H     -5.6926     14.2641      7.3925
H     -8.0272     15.6547      9.0118
H     -5.5985     11.7055     10.6433
H      0.3250     10.2251      6.5287
H     17.5440     12.6615     18.1911
H     -0.0230      7.8936      8.8305
C      1.8902      5.0270      7.3114
H     -0.1076      4.3722      2.0154
C      3.7265      5.3288      5.0032
C     -9.1377     15.8185      8.9511
H     20.5182     10.3410     13.5025
H      0.4572      6.6443     -0.4425
C      8.4388      7.2851     10.2549
H     -9.1489     16.6452     11.0229
H     11.6540      6.0404     11.9556
C      4.2602      2.9571      4.5759
C     17.6409      9.6949     17.9869
C     -7.1060     11.9888      9.0650
C     -5.8303      9.4752      6.6141
C      5.6344      4.5728      7.7339
C     -7.3844     13.4592      8.5815
H     -1.0470      3.9441      8.1884
H     -4.0508      9.3673      0.3130
H     -2.5943     18.2899      0.3699
C     14.5507     10.0197     14.0947
H     -2.6250      9.1679      3.0772
