256

C     20.2106      8.9856     13.9489
C      4.0455      1.7593      7.0185
C      2.1007      3.0418      1.3463
C      7.1308      5.0535      2.7847
H     -2.4279      3.3521      3.1207
C      7.1169      3.7326      3.0488
C      3.3893      3.8370      5.4467
C     -6.1700     10.0493     10.2911
C     16.0710      7.1543     19.5098
C      5.8806      1.4748      3.6553
C     -7.0843      9.0748      9.5427
C     13.7767      8.8622     13.7184
N     -0.4064      2.6834      6.6185
C      0.3924      5.9278      0.5627
O     -1.5181      2.4834      1.6783
C      3.2069      4.0910      7.0857
C     15.5447      6.1230     17.5361
C     16.2929     10.2758     16.5419
H    -11.7595     13.3721      9.0547
H     -3.1966      3.7004      4.5142
H     17.3513      6.0756     14.8500
H     -6.3574     10.5659     11.9720
C     17.0613      9.0909     16.0573
H     -8.2553      8.5109     11.0928
H     -5.3357     10.8253      9.7786
H      7.7090      3.6375      3.9990
H     12.8883      6.7367     11.4264
H     -0.4968      5.2121      6.7284
C      3.1362      2.7769      7.8777
H      6.9478      1.3222      4.2528
O     15.1105     10.7781     14.6332
C     -4.7770     12.6848      8.5457
C      6.9103      5.7440     10.0612
H      2.2306      0.1962      6.4029
C      6.0474      2.5775      2.7005
H      6.2899      4.8451      7.4304
H     -5.8002      9.0446     10.6783
C     17.2401     10.8542     17.6063
C     -2.8714      8.4148      5.2265
O      1.8713      8.6690      4.9393
C     -1.6178      7.5171      7.2794
C      8.7239      8.2737     11.9766
C     20.6723      7.7712     13.1556
C      6.6024      7.2159     -0.6119
H      4.9319      4.0768      1.8961
H     17.9286     10.2058     14.3860
H      1.1941     -0.8969      3.3990
H     -5.1287      5.1903      8.2350
H     15.0046     10.9681     15.6002
C      7.1998      6.2912     11.3299
C      7.8771      5.8944      3.7049
H      8.6113      6.6842      2.2144
C     -1.0261      6.6138      5.1404
H     15.3112      8.5390     20.3079
H      4.3123     -0.0141      2.0618
H     14.9645      7.0346     13.2444
C     -3.1237     11.3717      7.5312
C      5.5594      5.6476      9.5842
C     15.9134      7.6672     17.9948
C      4.5281      6.1359      0.5528
C     17.9747      9.3652     15.1114
H     -3.5269      7.6554      5.1423
H      8.4004      8.1392      3.2872
H     -9.5959     13.9213     10.6498
H     -6.2892     12.2931      9.8801
H     17.1918     12.6789     17.0983
C     -0.2687      3.9002      8.6976
C     13.4916      8.6347     12.3181
C      1.6917      1.9258      7.5109
H     -1.9198      7.3652      9.7295
C     -0.8671      6.1217      1.3634
H      6.1011      8.2365     -1.1881
H     -2.2544      2.2535      5.3655
H     -7.7991      9.8406     11.7395
C     10.0878      7.5127     12.7792
O     13.9128     11.1755     13.0412
C     -6.7160      8.8464      8.1445
C     16.2985      8.2898     20.3876
C     -9.3005     14.2733      9.5270
C      2.7181      1.4226      4.7256
H     -2.5861      9.7751     -0.9398
H     -6.8148     12.2811      6.8871
H     -9.5271     16.5102     11.4316
C      3.6447      2.9656      3.2239
H     -3.9385     10.5589      5.5299
C     -2.3795      8.5072      0.8968
C     11.2875      7.0685     12.0929
H     -1.7551      9.6090      7.3847
C      5.3482      2.1561      4.8520
H      4.0869     -0.0643      5.6205
H     -4.4800     13.5691      8.1954
C    -10.2130     12.4452      8.5017
C     -8.0772     11.2454      8.2382
C     -2.2389      5.2407      3.7565
C     16.9397      9.7000     19.8067
C      2.1648      3.2796      2.7852
C     -8.0539      8.3554     10.0979
H     15.8095      8.3678     13.7716
H     -3.4120      4.6248      2.1217
H      1.4634      4.7903     -0.5078
O      5.7219      6.6268      6.4285
C      0.5491      8.1036      4.5396
H     17.0556     10.4101     20.4761
C     -2.4836      8.7779      3.8542
C     -2.3693      7.7056      3.0929
H     -7.5659      8.9505      7.3433
C     -2.8427      7.5617      7.8661
H     14.3400      9.5562     10.3852
H      6.3738      2.2756      1.6661
H      0.2816      4.7770      8.5262
C      3.2788      1.9573      1.0500
C     -0.1432      8.4604      1.9887
C     -0.5470      3.0507      1.3009
C     -0.2562      4.0582      4.1887
C     -5.5054     10.5993      7.2309
H     -3.3970      7.6436      7.0402
H     15.8905     10.2364     19.2842
H      0.0363      5.1083     -0.2517
O      0.1985      9.4795      6.4311
C     -6.6336     11.4863      7.6305
C      0.6961      7.0311      6.8281
C     14.9278      7.8971     14.1249
C      0.5672      7.5742      3.0899
H     -4.4281     12.7396      9.4597
C      2.4934      0.5868      3.4771
C      0.3630      2.5793      7.9563
C     -2.2153     10.5081      6.8456
C     -2.5376      3.3330      5.3640
C     17.8116     11.9966     17.8295
C     -9.6575     16.5211     10.2344
C      0.8061      2.5149      0.6789
C     -1.4828      7.7793      1.7083
C     -8.9147     12.3725      8.2005
N      1.7494     -0.3421      3.8894
H      4.1620      1.2644     -0.7323
C      3.0928      1.3223     -0.5322
O     16.9536      6.5217     15.7668
C      9.3477      6.2608      0.3269
H     18.7495      9.5306     18.5905
H     -0.0874      1.8600      8.5102
C     -2.6671      4.4700      2.8182
C     -2.8510      7.2202      9.2345
H      1.6879      1.3732      6.4246
H      6.8488      4.7998      0.4748
H     -5.2971      8.5414      6.9118
C     -2.2831      9.7244      0.0707
H      4.7420      5.2782     10.2118
H      2.1060      8.2874      8.5396
H     -1.3408      9.4840      4.4587
H     15.3671      9.7850     11.5360
H      2.1277      1.7226     -0.9311
H     -0.2753      3.9937      9.6897
C     14.7978      7.3666     15.4330
C     14.6052      8.9176     11.4307
C     -7.1812     10.6104     11.2885
H     15.2883     10.3799     16.5877
C      4.3110      8.2644      4.5119
C      7.8348      7.1455      3.0784
C     21.3498      9.5223     14.8078
C     19.0833      8.5101     14.8685
C      4.3513      6.2495      6.3669
C      1.7730      4.9775      2.6700
C      5.9036      6.4428      0.6024
C      5.6986      7.4780      4.2445
C      8.1805      6.6663      1.0597
C      4.2433      5.1841      7.3745
C      1.3239      5.2318      1.2733
H     -2.0645      5.8155      6.7206
C      6.3892      7.3345      5.5339
H      9.1449      5.1852     -0.2605
H      0.4724      1.5718      0.8363
C      6.9604      5.6534      1.2332
H     -0.7920      3.2718      3.6673
O      7.6704      7.4621      5.5888
H      8.3926      9.2846     11.6646
H     -0.2839      9.4772      2.1452
H      3.1718      4.4343     -0.2051
H      4.6883      5.7264      4.2783
C     12.6387      7.5397     12.1677
C     15.6156      6.0956     16.0038
H      1.3992      6.8554      9.5768
C     -1.5602      4.4654      4.9435
C      0.4459      6.8320      5.3707
H      1.6827      1.7892      4.6199
C      1.3166      5.7127      4.9178
H      2.2175      0.2788      1.2999
H     -0.0467      7.2404      8.8105
C     -5.1427      6.1881      8.8839
C     -8.4414     13.7732      8.3523
C      6.5069      7.7729      3.1459
C     -2.9620     10.1265      5.5918
C     -0.4285      6.3421      3.0165
C     -1.7096      6.5240      3.7841
H      3.7357      6.8005      0.6785
H     -2.7450      3.6038      6.6587
C    -10.7697     13.7513      8.6166
C      0.5403      5.1777      3.6867
C      4.8607      3.4052      2.6686
H      1.5458      4.6210      8.1576
H     -6.6195      7.6586      7.9559
H     -2.7113     12.3297      8.1426
H     -5.3314     10.6779      6.1459
C      2.1793      7.0141      8.7518
C     -1.3029      5.3369      6.0234
C      3.0908      0.5711      1.9420
C      0.8518      4.7207      6.0170
C      1.9921      6.4911      7.3464
C      2.0895      4.3740      0.3186
H     -1.6080      5.4663      0.9173
H      4.0059      2.5484      1.7820
H      2.7860      0.1900     -0.1776
H     -1.2809     10.7136      6.5659
H      5.4256      0.6510      3.7402
C     -0.5855      8.9267      5.2133
C     -4.3082      7.1826      9.4461
H      4.2330      5.2871      1.2428
H     21.6493     10.3715     14.1601
C     -4.4671     11.5943      7.7141
H     10.1894      6.5185      1.1633
H     -2.4662     10.8434      4.8168
H     -6.2806     14.7262      9.2423
C     -0.2049      7.1964      7.7521
C      0.3619      3.4593      5.5965
O      8.7695      5.5104      4.6025
C     -1.4887      8.0103      5.8352
C     -6.4168     14.2430      7.1440
C      5.4772      1.8793      6.2043
C      3.1528      0.7200      5.9123
H      8.4004      5.4944      5.5450
H     -5.4890     15.0630      7.1732
H      5.7368      3.6674      8.5273
H     -4.8530      8.7825      8.5187
H      0.9024      8.9673      6.8587
H     18.6016     12.6031     18.1638
H    -10.4002     11.1547      8.2614
C      1.7337      4.8768      7.1533
H     -0.3205      3.9825      1.3988
C      3.9667      5.3633      5.0480
C     -9.5248     15.6204      9.2780
H     22.2418      9.1750     14.8063
C      8.2073      7.5379     10.8221
H     -6.1303     13.2784      6.6988
C      3.7355      2.6277      4.5932
C     17.6418      9.6928     18.4242
C     -6.3309     12.6045      8.6844
C     -5.3914      9.2903      7.6696
C      5.5178      4.7646      8.3017
C     -6.8589     13.9184      8.4623
H     -1.0662      3.9783      8.1121
H      0.4271      2.8570     -0.3841
H     19.8226     10.1242     13.2742
H      7.7305      5.6565     11.9276
H     -1.4671      2.4662      6.8296
C     14.0741     10.3608     14.0076
H    -10.2356     17.4293      9.7221
H     -2.8316      9.7114      3.1543
