262

C     19.9450      8.4307     13.5467
N     -2.9776     10.3929      1.6716
C      3.9918      1.3853      7.1292
C      2.2245      2.4144      2.1295
C     -5.2155     17.1762      1.7557
H     -3.2144      6.6434      2.8798
C     -5.5830     16.0630      2.4566
C      3.4147      3.9367      5.3422
C     16.2205      7.2022     19.4435
C     -6.4617     14.5464      4.2842
C     -6.7771      8.4814      8.7096
C     13.6504      8.8372     13.7417
N      0.0453      2.9804      6.2992
C      0.6341      6.4831      0.7327
O     -1.4024      2.9237      1.8978
C      3.1290      3.9796      6.8328
H     13.2087      7.3748     10.8158
C     15.5857      6.3139     17.3842
C     16.9558     10.4242     15.8398
H     -1.8325      2.3686      6.1269
H     17.2707      5.2922     14.8539
C     17.1059      9.0182     15.8894
H     -7.5734      7.5564     10.3458
H      7.0304      2.3101      9.1106
H    -10.5498     17.6321      9.7146
H     -1.3794      4.8492      7.0552
H     -6.8463     14.0938      9.1193
C      3.3167      2.8094      7.6152
H     -5.5826     14.6582      4.8308
O     14.3702     10.9433     15.3323
C     -5.5956     12.1196      9.4563
C      6.4206      6.0126      9.4391
H      2.7811     -0.3710      6.5487
H      3.9515      5.4370      8.2794
C     -6.7159     15.3012      2.9736
H     -9.2860     11.1497      9.4485
H      1.5358      7.7532      9.2324
C     17.2259     10.8459     17.0739
C     -2.9000      8.5768      5.2290
O      1.9511      8.7622      4.8959
C     -1.3086      8.4066      7.0812
C      8.8618      7.7180     11.6033
C     20.7279      7.4558     12.5893
C     -6.2167     19.5625     -1.1595
H     -7.6505     16.5001      1.5406
H     17.7456      9.5239     13.9876
H      2.9003     -0.8243      5.3869
H     -5.1161      6.4957      8.0290
C      7.7111      3.1409      8.6921
H      0.5625      1.1086      1.8100
C      7.4541      6.4114     10.4671
C     -4.8026     18.0820      2.8713
H     -4.7102     20.0828      1.6480
C     -1.1763      6.6882      5.2421
H     16.9176      8.5677     21.0919
H     16.7939     11.3621     14.8702
H      2.6899      5.4613      0.5476
C     -3.7214     11.2140      7.8411
C      6.0499      4.7145      9.1418
C     16.0346      7.6193     17.7493
C     -8.1632     18.3952     -0.1097
C     17.7669      8.6658     14.6408
H     -3.6600      8.0848      5.8621
H     -4.2700     20.0257      3.3053
H     -8.9781     14.1812     10.7205
H     -8.0375     10.0757      9.0300
H     18.7858     12.2178     16.9227
C     -0.2222      3.3965      8.6633
H     19.5834     10.3438     14.5602
C     13.3941      9.0248     12.2633
C      1.6702      2.0518      7.6563
H     10.7951      6.7615     10.5532
C     -0.5630      6.5240      1.6400
H     -7.0965     20.4496     -1.2995
H     -2.9172      2.7445      5.1737
H     19.5629      9.1087     12.5967
C     10.1799      7.2343     12.3549
O     15.5833     10.6852     13.5502
C     -5.9931      8.4407      7.5377
C     17.0953      8.3739     20.0799
C     -9.5572     14.4328      9.6522
C      2.3506      0.9072      4.5398
H     -1.9740     10.2147      1.7953
H     -3.0952     11.1844      1.1499
H     -6.6721     13.1775      6.6953
H      3.3687      7.2235      9.5660
C      4.0681      3.5018      3.2127
C     -2.4613      8.3051      0.7198
C     11.4722      6.9604     11.5093
C     -7.7180     14.9532      5.1540
H     17.4508     12.2509     16.1939
C    -11.1300     12.6706      8.8618
C     -8.7007     11.1812      7.3910
C     -2.0819      5.0004      3.9039
C     16.9009      9.8745     19.4647
C      2.8549      3.6731      2.6206
C     -7.2615      7.1755      9.3272
H    -11.8362     12.0955      9.3389
H     15.4459      7.3342     13.2555
H     -4.8031     18.0752      5.2801
H      0.9733      3.1633      0.3427
O     -7.0568     19.4939      6.2478
C      0.5170      8.2209      4.4685
H     -7.7018     11.7752      6.8023
C     -3.1893      8.4401      3.8548
C     -2.3187      7.1992      3.2178
H     -5.1487      9.7973      9.0446
H     -4.8082     16.1125      3.4883
C     -2.4639      8.4827      7.6649
H      2.2974      3.9073      4.6115
H     -8.7083     16.6833      1.2100
H      0.7387      3.5135      9.3511
C      3.1279      1.2076      1.9241
C     -0.2631      8.7510      2.0873
O     -8.8614     17.0421      0.2579
O      7.4331      3.9630     10.9675
C     -0.1282      3.3207      1.7584
C      0.0766      4.0195      3.8559
C     -6.0382     10.8079      7.3685
H     15.9136      9.8034     18.9526
H     -1.1783      9.7794      4.1888
H     12.1826      8.7795     10.7064
O      0.3250     10.3145      5.5330
C     -7.5024     10.7384      8.3394
C      0.7981      7.2052      6.6698
C     14.4564      7.6512     14.0266
H     15.6730      8.3801     15.7381
C      0.5249      7.8245      3.0369
H     -4.7502     12.8261      9.5281
C      2.4460     -0.3375      3.8664
C      0.5709      2.7315      7.5205
C     -2.9799     10.7907      6.6524
C     -2.3842      3.2022      5.9399
C     17.6908     12.1023     17.1384
C     -9.4721     16.9033      9.8923
C      0.7732      2.2341      1.9717
C     -1.3177      7.7032      1.7247
C     -9.6582     12.0658      8.7328
N      2.3005     -1.3214      4.7521
C      3.6386      1.5221      0.5483
O     17.0273      6.2543     15.4088
C     -3.2546     19.2203      0.4081
H     -6.7260      9.4698      6.0479
C     -2.8592      4.3278      3.1630
C     -2.7259      8.6528      9.1315
H      7.4381      3.7058      7.6578
H     -4.8016      9.6194      6.7660
C     -3.2822      9.3069      1.0011
H     -8.0358      7.4693      8.6964
H      1.7409      6.1040      9.6368
H     -0.5731      9.5125      2.7866
H     14.3874      9.4145     10.4516
H      3.9811      0.6383      0.2298
H     -0.8825      2.5778      9.3240
C     15.0154      7.6357     15.3710
H      2.7001      1.8198     -0.0463
C     14.1239      9.7292     11.3773
H      8.1244      5.6735     10.9401
H      2.2201     -2.3135      4.6317
C     -8.6604     21.2645      4.3608
C     -5.1156     19.6540      2.6034
C     20.3471      9.5894     14.4329
C     18.8341      7.7873     14.4818
C      4.1173      6.0549      6.4094
C      2.0549      5.1225      2.6144
C     -6.4831     18.4044     -0.2293
C     -7.2233     20.1085      3.8725
C     -4.5768     19.1077      0.5228
H     14.9907      9.9765     12.1185
C      4.2031      4.9595      7.3841
C      1.5862      5.2768      1.0261
H     -3.0592      9.4030      7.1786
C     -6.3837     19.9596      5.0635
H     -2.9723      4.2573      2.1500
C     -5.5139     18.0640      0.7272
O     -5.0995     19.9381      5.3494
H      8.8852      8.9006     11.4182
H     21.1401      9.7098     15.3752
H      0.6038      3.3225      3.4758
H      1.5643      4.1645     -0.5698
H      4.5889      5.7208      4.1759
C     12.5146      7.9568     11.1841
H      6.5775      5.1856      7.4359
C     15.7966      6.2616     15.9209
C     -1.9962      4.4653      5.3945
C      0.3850      7.0298      5.2331
H     -7.7174      8.6406      8.8068
C      1.3432      5.9094      4.7808
H    -11.7229     12.7350      7.7435
H      2.6685     -0.7301      1.6348
H     13.5053     10.5282     15.9626
H     -2.0705      8.2022      9.8303
C     -4.8705      7.5859      7.8392
C     -8.8481     13.4993      8.6053
C     -6.4878     20.4329      2.8185
C     -3.2876     10.3504      5.3625
C     -0.3023      6.2673      3.0512
C     -1.6872      6.3327      3.9253
H     -3.1648     11.7356      8.5679
H      2.5578      3.3957      0.6116
H     -8.5778     18.4154     -1.1289
H     -3.0683      3.3213      6.7484
C    -10.9084     14.1887      9.0059
H     -1.7656     11.3312      6.5778
C      0.7164      5.2440      3.3715
C     -7.9240     15.9562      2.3600
H      1.6307      4.9162      8.3691
H     18.2915      8.1861     19.9072
C      7.1529      3.8696      9.7331
C      2.3095      7.0137      8.9687
C     -1.5014      5.4470      6.2296
C      2.2495      0.1315      2.2798
C      0.9425      4.8906      5.9951
C      2.1194      6.7439      7.4988
C      1.6093      4.0027      0.3942
H     -1.2999      5.8598      1.0070
H      4.2376      1.0477      2.5169
H     -2.2286      9.7163      9.7201
H      4.0510      2.3676      0.2898
H     -4.1986      7.5598      7.0409
H      8.7399      2.9343      8.9126
H     -2.5141     10.3569      4.6204
H     -6.7628     13.6189      3.9074
C     -0.4395      9.1782      4.9014
C     -4.0134      7.7846      9.1772
H     -8.3390     19.2378      0.4146
H     -4.3213      8.6311      3.5040
C     -4.9801     10.8837      8.5447
H     -3.5082      3.6501      3.8801
H     -4.2622     10.2100      4.9175
C     -0.0208      7.9895      7.5633
C      0.2496      3.9166      5.4538
O     -4.9708     17.9406      4.0978
C     -1.5116      8.3537      5.5807
C     -6.6518     13.9446      7.4316
C     -7.7354     14.4922      6.4433
C      2.7770      0.6657      5.9097
H     -5.7538     14.5043      7.6599
H     -7.9533     15.4725      8.8953
H      0.6954     10.5687      6.6164
H     17.6752     12.4108     18.3108
H     -0.1703      7.8522      8.7482
C      1.7966      4.9245      7.2355
H      0.2178      4.3134      1.9519
C      3.8123      5.4448      4.9874
C     -9.0481     15.7292      9.0508
H     20.8827     10.3662     13.9468
H      0.5713      6.4765     -0.3294
C      8.4403      7.3687     10.2601
H     -9.5113     16.4651     10.9191
H     11.7181      5.9810     11.7237
C      4.0938      2.8806      4.5392
C     17.6913      9.6422     18.0943
C     -7.1259     12.0697      9.1186
C     -5.8247      9.4801      6.6746
C      5.5700      4.6543      7.7475
C     -7.4287     13.5288      8.5133
H     -0.9957      3.6232      8.0659
H     -4.2022      9.2929      0.2913
H     -2.7406     18.3233      0.3724
C     14.5621     10.0482     14.1754
H     -2.3510      8.7672      3.2246
