257

C     20.0487      9.0804     13.9784
C      4.0064      1.7720      6.9180
C      2.0950      2.9897      1.2682
C      7.3005      4.9631      2.8382
H     -2.7426      3.3144      3.1610
C      6.9753      3.7240      3.0787
C      3.3389      3.7706      5.4994
C     -6.1946     10.0406     10.2777
C     16.0968      7.1635     19.4407
C      5.9987      1.3747      3.7310
C     -7.0187      9.0247      9.5468
C     13.7804      8.8541     13.7053
N     -0.2691      2.7628      6.6603
C      0.3566      5.8440      0.6574
O     -1.4715      2.4109      1.6540
C      3.2611      4.1674      7.1878
C     15.5242      6.0784     17.5585
C     16.4092     10.3655     16.3821
H    -11.8720     13.6911      9.0648
H     -3.5684      3.3121      4.7890
H     17.0071      6.3259     14.7695
H     -6.8971     10.9546     12.1703
C     17.0460      9.0171     16.1665
H     -8.1050      8.4900     11.2162
H     -5.5224     10.6790      9.7010
H      7.5576      3.5384      3.9537
H     13.1771      6.9605     11.4591
H     -0.5777      5.4290      6.7539
C      3.1102      2.7964      7.8327
H      6.8129      1.3860      4.3197
O     15.1952     10.7156     14.6624
C     -4.8206     12.6193      8.6359
C      6.8462      5.5988     10.0683
H      2.1342      0.1358      6.1183
C      6.1551      2.6477      2.7930
H      6.5181      4.5289      7.8042
H     -5.7266      9.2605     10.7694
H     -8.2617     10.7888      9.1021
H      5.3916      6.7511      9.1878
C     17.2238     10.7245     17.5939
C     -2.7622      8.5048      5.3126
O      1.9356      8.7041      4.9266
C     -1.4981      7.5927      7.2406
C      8.6446      8.2058     12.0055
C     20.5650      7.8215     13.1280
C      6.5274      7.1717     -0.6210
H      4.6370      3.8516      1.7374
H     17.8250     10.0264     14.3314
H      1.1844     -0.9513      3.1407
H     -5.0963      5.5447      8.1384
H     14.9520     10.6773     15.4493
C      7.3716      6.2878     11.4773
C      7.7904      5.9259      3.6839
H      8.7143      6.8891      2.2131
C     -1.0324      6.7104      5.1984
H     15.3529      8.6286     20.3382
H      3.8963      0.1182      2.0346
H     14.6708      7.2788     13.1085
C     -3.0942     11.3422      7.6824
C      5.4282      5.6868      9.5919
C     15.9175      7.5788     18.0549
C      4.5830      6.1594      0.5371
C     18.0165      9.2840     14.9766
H     -3.5619      7.7266      5.2983
H      8.4705      8.0790      3.2523
H     -9.4316     13.7662     10.4824
H     -6.5267     12.0561      9.6549
H     17.1851     12.3389     16.8850
C     -0.2588      3.8626      8.6804
C     13.4982      8.7843     12.3794
C      1.7226      1.9860      7.5755
H     -2.1033      7.4336     10.0447
C     -0.7385      6.2052      1.4099
H      6.2303      7.9325     -1.2682
H     -2.2482      2.1251      5.4823
H     -7.6816     10.0243     11.6371
C      9.9986      7.6025     12.6713
O     13.9663     11.2050     13.0437
C     -6.8023      8.8129      8.2783
C     16.3523      8.4334     20.2768
C     -9.2998     14.2841      9.5975
C      2.8186      1.5042      4.6399
H     -2.6278      9.5022     -0.8455
H     -7.2019     12.0239      7.1546
H     -9.8874     16.4547     11.4506
C      3.6206      2.9763      3.2121
H     -4.0395     10.4932      5.7677
C     -2.4548      8.4880      0.8295
C     11.3194      7.2840     12.1416
H     -1.9830      9.5268      7.5351
C      5.2327      2.3022      4.8949
H      4.1253     -0.1906      5.7137
H     -4.4942     13.7434      7.9898
C    -10.2712     12.3874      8.6222
C     -8.2010     11.3073      8.2326
C     -2.2823      5.2487      3.7208
C     16.8828      9.5795     19.7291
C      2.1866      3.2504      2.6721
C     -7.9874      8.3559     10.1136
H     15.8703      8.3627     13.7582
H     -3.2494      4.7846      1.7484
H      1.6060      4.2869     -0.8538
O      5.5864      6.7312      6.4589
C      0.5602      8.0381      4.4450
H     17.1396     10.1797     20.7275
C     -2.5620      8.7214      3.7346
C     -2.2768      7.6860      3.1217
H     -7.6809      9.2263      7.5890
C     -2.7803      7.4086      7.8819
H     13.6331      9.3962     10.5934
H      6.8002      2.2500      1.9368
H      0.5576      4.7072      8.9141
C      3.2099      1.9350      0.9912
C     -0.1797      8.4170      1.8817
C     -0.4849      3.0713      1.2684
C     -0.3593      3.9602      4.2669
C     -5.5468     10.6408      7.2614
H     -3.4798      7.7049      7.2065
H     15.8301     10.1356     19.3536
H     -0.2654      5.3483     -0.0718
O      0.2317      9.4995      6.3907
C     -6.7940     11.3913      7.8404
C      0.7842      7.0034      6.7465
C     14.8589      7.9460     14.1463
C      0.5099      7.6059      2.9479
H     -4.1324     12.7619      9.5416
C      2.6400      0.5756      3.4390
C      0.2334      2.4989      8.0306
C     -2.1682     10.3780      6.9068
C     -2.5501      3.2769      5.2941
C     17.8410     11.9639     17.8155
C     -9.6572     16.5431     10.3212
C      0.8087      2.5627      0.6422
C     -1.4535      7.8228      1.6942
C     -8.9269     12.3870      8.1083
N      1.8055     -0.2802      3.8585
H      4.2309      1.0488     -0.7405
C      3.1164      1.2825     -0.4912
O     16.9741      6.4823     15.7049
C      9.3779      6.3272      0.3767
H     18.7458      9.5736     18.6727
H     -0.3509      1.7234      8.5692
C     -2.7088      4.4874      2.8256
C     -2.9062      7.2339      9.2232
H      1.3782      1.6105      6.5717
H      6.9019      4.5511      0.5043
H     -4.8753      8.5794      6.9021
C     -2.3314      9.7184     -0.0090
H      4.3909      5.4368     10.2731
H      1.9293      8.0117      8.4654
H     -1.1941      9.7400      4.8364
H     15.0896      9.8268     11.5143
H      2.1770      1.4934     -1.0615
H     -0.5213      3.8662      9.9222
C     14.8305      7.2953     15.4396
C     14.5530      8.9620     11.2744
C     -7.1203     10.6199     11.2851
H     15.3254     10.5569     16.5914
C      4.4084      8.3923      4.5098
C      7.9206      7.2070      3.1630
C     21.2783      9.5792     14.7683
C     19.0609      8.5100     14.9689
C      4.3312      6.2178      6.3284
C      1.7614      4.9904      2.5816
C      5.8012      6.5117      0.5687
C      5.7289      7.5473      4.2283
C      8.0970      6.5605      1.0135
C      4.1973      5.1125      7.5054
C      1.5140      5.2587      1.1910
H     -2.2759      5.8560      6.7597
C      6.2894      7.2481      5.3787
H      9.3709      5.2947      0.0849
H      0.5631      1.6414      0.9140
C      6.9687      5.5573      1.2966
H     -0.7147      3.3853      3.5214
O      7.6151      7.4361      5.5783
H      8.3907      9.1845     11.7032
H     -0.3878      9.3651      2.3783
H      3.0078      4.9708      0.2800
H      4.5709      5.4832      4.2154
C     12.6809      7.5981     12.2361
C     15.6099      6.0905     16.0044
H      1.2163      6.8099      9.5234
C     -1.6322      4.4194      4.9250
C      0.5821      6.8541      5.3833
H     16.9220      7.8791     20.8589
H      1.5014      1.4906      4.9305
C      1.2636      5.6322      4.9713
H      2.2930     -0.0562      1.6028
H     -0.1326      7.3481      8.7332
C     -5.1879      6.2218      8.9232
C     -8.4453     13.7376      8.2237
C      6.5409      7.7804      3.1388
C     -3.0869     10.0135      5.6954
C     -0.3919      6.4031      2.9696
C     -1.6298      6.5840      3.7865
H      3.7529      6.5630      0.1707
H     -2.5936      3.5499      6.6123
C    -10.7866     13.7630      8.5775
C      0.5479      5.2318      3.7794
C      4.7221      3.4152      2.5937
H     -6.3206      7.8607      8.0180
H     -2.5878     12.0847      8.0752
H     -5.4366     10.5176      6.0999
C      2.1881      7.0848      8.8226
C     -1.3385      5.4537      6.0441
C      3.0114      0.6160      1.9378
C      1.0091      4.6030      6.0039
C      1.9924      6.5456      7.3180
C      2.0782      4.4010      0.2017
H     -1.6154      5.8168      0.9831
H      4.0198      2.3720      1.8501
H      2.6811      0.4783      0.1937
H     -1.3221     11.0697      6.7712
H      5.4985      0.5191      3.1006
C     -0.5299      9.0046      5.3133
C     -4.3453      7.3034      9.4648
H      4.1580      5.4355      1.1131
H     21.4432     10.5423     14.1653
C     -4.4182     11.5824      7.6799
H     10.0466      6.1374      1.1603
H     -2.6674     10.6382      4.8176
H     -6.1566     14.4796      9.2223
C     -0.2244      7.0661      7.7353
C      0.3098      3.5708      5.6204
O      8.8037      5.4292      4.6725
C     -1.4765      7.9528      5.8465
C     -6.4786     14.2252      7.1480
C      5.4501      2.0331      6.3042
C      3.2508      0.6893      5.9803
H      8.3252      5.7213      5.6161
H     -5.6678     15.0022      7.2345
H     -4.7012      9.0334      8.6088
H      0.9666      9.0639      6.9268
H     18.7285     12.2058     18.1299
H    -10.9276     11.4110      8.2924
C      1.9032      4.8332      7.0961
H     -0.4264      4.0894      1.6548
C      3.8966      5.2959      5.0762
C     -9.5381     15.5339      9.2543
C      8.3131      7.4734     10.8641
H     11.2111      6.2976     11.5744
H     -6.4016     13.5635      6.3878
C      3.7650      2.5771      4.6112
C     17.6348      9.6524     18.3988
C     -6.2521     12.5685      8.7202
C     -5.3808      9.3200      7.7056
C      5.4150      4.8479      8.2322
C     -6.9470     13.8856      8.4333
H     -1.2832      3.9138      8.1707
H      0.1557      3.1565     -0.1340
H     19.5518      9.9085     13.3966
H      8.3697      5.5807     11.9176
H     -1.3562      2.7031      6.7153
C     14.0301     10.3306     13.8841
H    -10.2771     17.4015      9.8904
H     -2.5905      9.7189      3.3343
