258

C     19.6176      8.7621     13.6168
N     -2.4640     23.6101      1.5534
C     17.0063      1.6616     19.9169
C      2.3836     15.6357      2.2474
C     20.5418      4.8297     15.2261
H     -3.5107     20.1786      2.5408
C     20.8363      3.4979     15.2963
C     16.3663      3.9860     18.0611
C     16.1902      7.0769     19.3159
C     19.3791      2.0532     16.8972
C      5.2047      8.3250      8.9783
C     13.5693      8.7373     13.8991
N      0.6145     15.3161      5.8097
C      0.9994     19.3780      0.4396
O     -1.2137     15.4814      1.4533
C     16.0209      4.0751     19.6566
H     13.9859      7.5086     11.3550
C     15.7812      6.1317     17.3720
C     16.3642     10.1736     16.3756
H      1.3377     14.1598     10.0876
H     -2.2043     15.5433      4.7666
H     17.1384      7.3530     14.8188
C     17.0702      8.9440     16.1970
H      4.1866      6.2832      9.6509
H     -0.6186     18.2809      6.9533
C     16.1110      2.8878     20.5546
H     20.4867      1.8861     17.5347
O     14.1056     10.4095     15.6234
C      8.0053     12.5976      8.6245
C      6.0809      6.0349      9.8760
H      3.2659     12.7628      6.7279
H      3.8552      5.2357      8.3843
C     19.6001      3.1041     15.9866
H      4.1211     12.3633      9.4591
H      3.0523     20.0276      9.0507
C     16.8845     10.9143     17.4050
C     -2.8737     21.4261      5.1952
O      2.0142     21.5069      4.6816
C     -1.3787     20.8982      7.2231
C      9.0033      7.9741     12.0432
C     20.6141      7.7236     13.0310
C      6.6674      6.9903     12.1662
H      5.7814     17.6998      2.0103
H     17.0784      9.8796     14.4730
H      1.6537     11.8614      5.5676
H     -6.1498     19.8615      8.6237
C      7.9666      2.7199      9.0083
H      0.9970     14.2333      1.8858
C      7.3143      6.3849     10.9097
C     21.0867      5.6808     16.2251
H     20.9818      7.4911     15.0197
C     -0.9259     19.6599      5.0672
H     15.9301      8.3698     20.9200
H     16.1739     10.8683     15.4549
H      3.0090     18.5919      0.2755
C      9.5390     11.1666      7.5793
C      6.3933      4.8264      9.2863
C     16.1814      7.6881     17.9507
C      5.2882      5.0746     12.5754
C     17.6267      8.9795     15.0166
H     -3.2305     20.3723      5.5174
H     20.8631      7.8427     16.7203
H      3.8993     14.3724     10.5778
H     18.2900     11.7714     16.2108
C     -0.2651     16.2947      8.0666
H     19.7759     11.0232     14.8383
C     12.7290      8.8773     12.6532
C      1.4384     14.7011      7.8784
H     11.6527      6.0927     10.6614
C     -0.3176     19.1641      1.2388
H      5.7467      7.5474     11.6198
H     19.0575      8.8206     12.7195
C     10.3144      7.5838     12.4849
O     15.2882     10.3713     13.6150
C      6.7167      8.7019      8.8166
C     16.5933      8.7630     20.2842
C      3.5751     14.4802      9.5745
C      2.7826     14.0340      4.9677
H     -1.5038     24.1107      1.7808
H      5.6902     12.1895      7.0787
H      2.0917     17.1688      9.5163
C      4.3232     16.5517      3.0078
H     -3.3124     22.0632      7.1876
C     -1.9662     21.4005      0.5276
C     11.6417      6.6919     11.6887
H     -2.5001     24.3300      5.6476
C     18.3364      2.4099     17.8389
H     17.0295     12.9229     16.8922
C      2.2521     12.5689      8.7559
C      4.5331     10.9932      8.5731
C     -2.0969     18.0364      3.8401
C     16.2642      9.7789     19.5075
C      2.9973     16.7331      2.4663
C      5.0389      6.8293      9.2161
H      2.0943     11.9722      9.5869
H     15.4005      7.8196     13.4354
H      0.7464     16.6275     -0.3796
O     18.7239      6.7900     19.4998
C      0.6666     20.9420      4.4091
C     -2.4798     21.6737      3.5924
C     -2.3628     20.3900      2.8284
H      7.4408      8.2560      9.8703
H     21.4668      3.5009     16.1026
C     -2.6149     21.3347      7.8789
H     15.4656      4.0216     17.4933
H     12.1389     10.1133     11.1519
H      3.9870      4.1725     13.8781
H      0.1413     17.3028      8.4366
C      3.5289     14.5463      2.5722
C     -0.2838     21.3328      2.1152
O      4.8151      3.8287     13.1075
O      7.6900      3.9294     11.0401
C     -0.1710     16.0739      1.4548
C      0.1436     16.5269      3.7500
C      6.8823     10.7466      7.4727
H      9.4142     10.4492      8.7108
H     15.3001      9.6151     19.1925
H     -0.6553     22.7920      4.6633
H     12.9557      8.5208     10.5947
C      5.7016     11.5332      8.0228
C      0.8407     19.9626      6.5191
C     14.4916      7.5852     13.9408
H     14.7877      8.6785     15.9157
C      0.4933     20.4129      2.9794
H      8.7916     13.1558      8.8299
C      2.1081     13.0758      4.1003
C      0.4607     15.4039      7.2523
C     -2.6425     23.5977      6.2772
C     -2.4741     16.3456      5.7423
C     17.6829     12.0248     17.3360
C      3.2223     16.9666      9.9013
C      1.1525     15.2398      1.4106
C     -1.4478     20.5985      1.5799
C      3.7248     12.3753      8.4045
N      1.6007     11.8318      4.4776
C      3.7304     14.5944      1.0444
O     16.9961      6.5068     15.2227
C      9.6322      6.5096     13.2615
H     18.1372      9.7875     18.9927
C     -2.6913     17.3634      2.8268
C     -2.6923     20.6598      9.0616
H      8.4996      2.5837      8.0501
H      8.4462      3.4339     11.3654
H      8.0890      8.9557      7.2188
C     -2.7416     22.6916      0.7358
H      4.8875      6.5348      8.1707
H      1.4612     20.4424      9.0526
H     -3.4472     16.7081      6.2891
H     -0.5001     22.1763      2.6226
H     14.2275      9.9555     11.7251
H     -0.3034     15.8533      9.0893
C     14.8751      7.5699     15.3854
H      3.3064     13.7474      0.5448
C     13.1426      9.9002     11.7676
H      0.6904     11.6291      3.9785
C     17.3634      8.1007     17.3524
C     20.5593      7.0456     15.9494
C     20.3645      9.8577     14.3995
C     18.7369      8.1975     14.5766
C     17.2886      6.1208     19.3605
C      2.0211     17.9303      2.4196
C      6.5841      5.6581     12.9147
C     18.5280      7.2889     17.0853
C      8.4685      6.5896     13.6168
C      4.4318      4.9657      7.5110
C      1.9492     18.1708      0.5644
C     19.4672      7.1828     18.3753
H      1.7539     14.8344      5.3831
H     -2.8400     17.8696      1.9809
H      1.6580     14.7296      0.6242
C      7.4059      5.7665     14.1012
H     -0.9737     16.0981      3.2968
O     20.7134      7.4999     18.5779
H     21.2138      9.4274     15.2732
H      0.8462     15.8264      3.4206
H     -3.0304     24.0675      2.2213
H      1.6668     17.4304     -1.4452
H      8.8285      2.3436      9.9122
C     12.9034      7.7574     11.5257
C     15.8364      6.5070     15.8268
H      2.0432     18.5295      8.8963
C     -1.8350     17.5836      5.0613
C      0.6227     19.6785      5.1412
H     17.5400      8.4295     20.4863
H      3.5771     14.8078      4.2869
C      1.3782     18.5037      4.5667
H      1.3953     12.3645      8.1095
H      2.2830     12.7410      1.9845
H     14.8095     10.0600     16.2984
H      0.4388     20.7728      8.3446
C     -4.9927     20.0467      8.4484
C      4.3730     13.7629      8.3131
C     19.2690      7.6449     15.8664
C     -3.5457     22.4410      6.0342
C     -0.1100     19.0256      2.7994
C     -1.3954     19.3485      3.6113
H      2.4127     16.3704     -0.4021
H      5.1584      4.8869     11.5063
H     -2.0557     16.2157      6.5828
C      2.1819     13.9857      9.2414
H     -1.7097     22.9723      6.4881
C      0.6197     17.8639      3.3076
C      5.5212     16.8466      2.5293
H     -1.4258     16.5930      7.9055
H      5.9602      8.9486      6.8662
C      7.4622      3.8479      9.6114
H     10.3173     11.6790      8.1115
H      6.8807     10.7178      6.4639
C      2.1513     19.6468      8.5992
C     -1.4991     18.5561      6.1509
C      2.3767     13.5094      2.8499
C      1.2363     17.4734      5.5784
C      2.0926     19.2949      7.0681
C      1.6930     17.2823     -0.4164
H     -0.8891     18.5931      0.6083
H      4.5121     13.8791      2.9178
H      3.0620     15.4967      0.3690
H     -4.6909     20.3191      7.3531
H     19.4232      0.9509     16.9835
C     -0.4855     21.9577      5.2805
C     -3.8945     20.0032      9.4145
H      4.4829      5.8646     12.3648
H     -3.4175     22.1227      3.3134
C      8.1033     11.7024      7.6806
H     -2.8511     16.2999      2.7434
H     -4.3649     23.0228      5.3944
C     -0.0202     20.5164      7.3665
C      0.5855     16.4636      5.1330
O     21.4773      5.1187     17.5158
C     -1.4836     21.0553      5.6633
C      6.2951     14.3363      7.1404
C     18.3764      2.2046     19.4006
C      3.2635     13.7316      6.2374
H      7.3409     14.1304      6.6888
H      4.9474      3.3981      8.6347
H      6.1214     12.6302      9.9686
H     18.0874     12.0517     18.3594
C      2.0460     17.7955      6.8371
H     -0.1417     17.1780      1.2944
C     16.9864      5.3514     17.8876
C      3.7477     15.9451      8.9613
H     20.9738     10.5329     13.8075
H      0.7456     19.4963     -0.7532
C      8.6885      6.9768     10.7898
H      2.8392     16.7421     10.9079
H     11.9297      5.8064     12.2907
C      4.4061     16.1867      4.3536
C     17.2140      9.9751     18.5172
C      6.4979     12.5640      8.8421
C      6.9908      9.3191      7.5416
C      5.5318      4.4232      8.2012
C      6.0468     13.8780      8.5345
H     -0.7495     17.2758      5.0397
H     -3.3394     22.8503     -0.0930
H     10.3780      6.4269     14.4412
C     14.4009      9.8320     14.1978
H      3.8152     17.6591     10.2083
H     -1.8185     22.3918      3.7087
