261

C      6.9546      9.0173      1.0477
C      4.1423      1.3249      6.6734
C      2.0502      2.9062      1.3384
C      7.1817      4.8363      2.7792
H     -2.8472      3.5116      2.4262
C      6.9968      3.5925      3.1538
C      3.7362      3.6520      5.2766
C      6.4750     -3.1285     10.2430
C      3.0179      6.9625      6.4256
C      5.7029      1.4397      3.4542
C      5.8274     -4.2490      9.3071
C     13.5676     -4.2222      0.6496
N     12.4519    -10.0705     -6.3139
C     13.2911     -7.0944      0.6312
O     -1.2469      2.4332      1.5315
C      3.4676      3.4803      6.5748
C      2.6440      6.1125      4.4916
C      3.5497     10.3731      4.0778
H      1.8997      1.1030     10.1035
H     -3.5129      3.5924      4.4021
H      3.7199      4.8797      1.9054
H      5.6078     -1.4044     11.5301
C      4.2720      9.0266      3.5487
H      3.9458     -4.3116     10.1484
H      6.4626     -2.4536      9.5131
H      7.1278      3.6045      4.3202
H     12.7425     -5.7235     -2.4561
H     -0.6266      5.3899      6.3027
C      2.9839      2.5155      7.4130
H     11.3177     -3.0599     -1.0886
H      6.7254      0.6803      3.1187
C      7.9725     -0.1338      8.8048
C      6.8836     -6.7915     -3.1894
H      2.4800      0.0814      6.1847
H     16.1095     -6.5463     -4.3600
C      6.0203      2.7184      2.6996
H      6.5221     -8.2211     -5.5460
H      7.6338     -3.2787     10.3601
H      4.5969     -2.5648      8.0969
H      4.8665     -5.7609     10.5020
C      4.7841     10.7313      4.8029
C     10.1674     -3.9624      5.2416
O      1.8911      8.6350      5.0988
C     11.4449     -4.6769     -5.7847
C      8.7268     -4.8338     -0.7408
C      7.6312      7.9056      0.3708
C      6.4873     -5.9608     -0.6258
H      4.6180      3.9745      1.5622
H      4.8201     10.3058      1.9836
H      0.6795     -0.1357      3.4396
H      7.7656     -6.6099     -5.3205
C      7.1779     -6.4524     -1.8563
C      7.7600      5.9571      3.6307
H      8.7302      9.2881      2.0934
C     -1.2300      6.7228      5.0624
H      2.5168      8.5118      7.7666
H      3.8406      0.1445      2.0344
H      4.7886     -2.1765     10.4405
H      1.9892      6.8128      0.0491
C     10.0613     -1.2765      7.7467
C      5.5505     -7.1234     -3.7948
C      2.7559      7.4229      5.0403
C      4.7935     -7.0876      0.3511
C      5.0014      9.4479      2.3516
H      9.5090     -4.7288      5.7788
H      8.8769      7.7777      2.9716
H      4.3135      1.4588     10.4097
H      6.3093     -0.8090      9.7174
H      5.0730     12.1198      3.8015
C     13.3723     -9.0946     -4.1784
C     13.2399     -4.5312     -0.9279
C      1.5977      1.7701      7.9648
C     12.4151     -6.3917      1.6246
H      5.5521     -5.2534     -0.8181
H     -2.5039      2.2708      4.4539
H      4.8495     -3.3824     11.3463
C      9.9595     -5.6165     -0.3255
O     14.9713     -2.5451     -0.2793
C      6.0542     -4.1910      7.9895
C      3.3994      8.3784      7.1903
C      3.7339      1.4558      9.2920
C      2.6037      1.3876      4.8426
H     11.6444     -2.9211      0.8006
H      5.6679     -0.1310      6.8572
H      3.6771      3.5533     10.6661
C      3.7620      3.0447      3.2135
H      9.1103     -3.2131      6.3577
C     10.8312     -4.6069      0.3210
C     10.9427     -6.0267     -1.2545
H     11.3407     -2.8131      7.9061
C      5.1802      1.7469      4.7739
H      3.8359     -0.3804      5.4827
H      8.3039      0.5025      7.8825
C      2.5128     -0.6607      8.7604
C      4.6271     -1.5449      7.6211
C     -2.1237      5.1876      3.3180
C      3.6501      9.4873      6.5239
C      2.2842      3.4488      2.7728
C      4.6836     -4.9324      9.9075
H      3.3601      8.0651      1.1915
H     -4.0058      4.8737      2.3398
H     14.7670     -8.7926     -0.4711
O      5.4989      6.3724      6.4284
C      0.6084      8.1766      4.4721
H      3.9754     -0.8845      6.9920
C     10.4360     -4.1156      3.7506
C     10.8957     -5.1173      3.1055
H      5.4174     -4.9907      7.6442
C     10.1925     -5.0283     -5.2795
H     14.3442    -10.2532     -7.1447
H     13.7330     -4.1430     -2.6778
H      6.4624      2.2639      1.8558
H     13.9466     -8.6820     -3.4853
C      3.0963      1.7274      1.1456
C     12.8275     -4.2677      2.0098
C     -0.3170      3.1822      2.0398
C     -0.2232      4.2491      3.9431
C      7.3165     -1.8629      7.2879
H      1.2650     -0.5643      4.8277
H      9.4418     -5.2800     -6.2141
H     13.0992     -6.2589     -0.3557
O     13.0229     -2.9549     -6.8946
C      6.1137     -1.0184      7.6130
C     13.5273     -5.7511     -6.0836
C      2.2363      7.5891      0.9013
H      2.4857      8.4109      2.6764
C      0.7350      7.7152      2.9896
H      8.7079      0.0966      9.6130
C      2.4034      0.7296      3.5157
C     13.0456    -10.3402     -4.8461
C     10.9569     -2.1135      7.0029
C     -2.4910      3.3555      4.6183
C      5.7146     11.7576      4.5290
C      2.7942      3.7338      9.9824
C      0.8057      2.2514      1.3368
C     11.4531     -4.8684      1.7210
C      4.0239     -0.6105      8.5727
N      1.6515     -0.2977      3.8467
H      3.8570      1.4791     -0.5461
C      3.0671      1.2751     -0.1970
O      4.1251      5.9240      2.4087
C      9.5243     -6.4200      0.8027
H      5.8832      9.9627      6.4843
H     12.1943    -11.2305     -4.6140
C     -3.0568      4.4760      2.5195
C     10.2870     -5.4144     -3.9957
H      1.2009      1.4605      6.8686
H      7.9555     -3.8756      7.0185
C     11.3294     -3.4774     -0.0992
H      5.6678     -6.3427     -4.3070
H     14.7204     -5.4079     -3.2137
H     11.8523     -3.3524     -8.8785
H     15.0349     -3.5036     -1.8045
H      2.3624      1.8291     -0.6093
H     12.3376     -9.1303     -3.5852
C      2.0983      7.4224      2.3755
H      4.8128     -7.5498     -3.0548
C     14.3206     -4.3229     -1.7084
C      5.5262     -2.5906     11.1306
H      2.5946     10.3407      4.3039
C      4.3692      7.9745      4.3305
C      7.8532      7.3794      2.8500
C      8.2244      9.8171      1.4251
C      6.0787      8.6124      2.1761
C      4.2595      5.8268      6.2531
C      1.6685      5.0446      2.4432
C      6.0963     -6.7755      0.4558
C      5.5456      7.3157      4.0504
C      8.1025     -6.0123      1.3846
C      4.2962     -8.2741     -5.5569
C     14.4210     -7.8382      1.0139
H     -2.7257      5.5667      5.6002
C      6.2589      6.7466      5.3087
H      9.3003     -7.5629      0.2497
H      0.7982      1.2099      1.5173
C      7.2150     -7.3570      1.3572
O      7.4188      6.7142      5.8799
H      8.9737     -3.7882     -0.6575
H      1.6738      3.3861      3.6798
H     12.5181     -3.2064      2.6599
H     16.3583     -8.4499      0.5436
H      4.5762      5.3592      4.1480
C     12.2224     -5.4923     -1.3997
C      2.8404      5.9931      2.8282
H     14.4948     -7.0590     -3.8725
C     -1.5206      4.4589      4.4991
C      0.3947      6.8904      5.4478
H      4.2295     -5.2723      8.9640
H      1.5481      1.5835      5.0404
C     14.1433     -7.2674     -8.1082
H      2.2195      0.0548      1.6740
H      3.7708     11.2126      3.1215
H     12.5753     -5.2791     -3.9705
C      7.9103     -6.5901     -4.1591
C      4.4043      0.7522      8.2252
C      6.4375      7.7232      3.1383
C      9.9603     -2.7098      5.9630
C     12.7106     -6.4569      2.9969
C     -1.4597      6.5610      3.5966
H      4.5117     -6.0129      0.4933
H     -2.1094      3.3906      5.7205
C      2.3996      0.7020      9.1716
C      0.5876      5.3910      3.4544
C      4.7803      3.4252      2.4861
H     15.0832     -8.7345     -5.1643
H     10.4978     -0.4817      8.4587
C     14.9814     -6.1948     -4.1317
C     -1.6268      5.3592      5.7042
C      2.7812      0.6931      2.0660
C     14.0585     -8.2613     -7.1397
C     14.7112     -6.3510     -5.6978
C     15.3379     -8.8712      0.4766
H     11.6514     -7.2015      1.5767
H      4.1647      2.0030      1.5055
H      2.9054      0.3158     -0.1335
H     11.7745     -1.6193      6.5120
H      4.8561      0.9044      3.0375
C     12.4333     -3.8890     -7.9234
C      8.8862     -5.5772     -3.3341
H      4.6216     -7.9154      1.0353
H      8.8558     10.1687      0.6836
C      8.6419     -1.2359      7.9460
H     10.2785     -6.6215      1.5729
H      9.7362     -1.6781      5.0548
H      6.0290      1.9198      9.6225
C     12.6190     -5.1535     -5.1633
C     13.4350     -9.5217     -7.3773
O      8.7427      5.5356      4.3097
C     11.3496     -4.7625     -7.2574
C      6.5045      1.6693      7.2695
C      5.5705      1.8233      6.0968
C      3.3319      0.5232      5.8164
H      9.5206      6.0995      4.0421
H      7.4068      2.3881      7.4519
H      5.6898     -9.7084     -4.7242
H      7.6922     -3.3811      8.4432
H     13.5726     -3.7819     -6.3236
H      5.7599     12.7422      5.3479
C     14.6069     -7.9777     -5.9769
H     -0.7876      4.0321      1.6013
C      3.8027      5.0925      4.9278
C      3.4174      2.8874      8.9909
H      7.8232     10.5774      2.1284
C      8.4267     -5.6373     -1.9565
H      3.5470     -7.9466     -4.8126
H     10.6997     -6.2647     -2.3903
H      7.2530      0.8888      7.0482
C      3.6937      2.4162      4.5429
C      4.8954      9.9144      5.9375
C      6.4973     -0.2114      8.9239
C      7.2522     -3.4147      7.6303
C      5.6530     -8.3941     -4.8785
C      5.8710      1.1826      8.6497
H     13.0150     -8.4723     -5.0071
H     10.9437     -4.8750     -3.2033
H      0.4332      2.5456      0.2896
H      6.4510      9.9477      0.5092
H     12.3495    -10.9225     -6.8707
C     14.2485     -2.8850      0.6138
H      3.1958      4.9693      9.7550
H     10.2901     -3.1002      3.3450
