263

C     19.8908      8.8445     13.8595
C      4.1396      1.2835      7.2530
C      2.2209      3.0776      1.3330
C      7.2053      4.6776      2.2571
H     -3.3258      3.5127      2.9175
C      7.1613      3.4409      2.9143
C      3.3248      3.9140      5.3873
C     -6.1636      9.6166     10.6354
C     15.8663      7.3303     19.3630
C      5.8600      1.8244      3.8817
C     -6.5965      8.5555      9.3951
C     13.8374      8.5955     13.5749
N      0.0542      2.8332      6.5712
C      0.4459      6.0086      0.4948
O     -1.5900      2.5966      1.3924
C      3.7563      3.6405      6.6412
C     15.6773      6.3490     17.4056
C     16.7044     10.8746     16.5735
H    -11.6465     13.6839      9.1875
H     -3.7066      3.0589      4.8627
H     17.2311      6.3722     14.6290
H     -6.7495     11.6472     10.8500
C     16.9015      9.4222     16.1631
H     -5.1595     10.0307     10.2180
H      8.1805      3.1512      3.5620
H     12.5355      7.2195     10.7307
H     -1.3591      4.8578      6.5324
C      3.3801      2.5655      7.5531
H     -2.4444      9.5981     -0.9703
H      6.8659      1.3766      3.9370
O     14.7266     10.0790     14.9242
C     -4.7190     12.7506      8.7852
C      6.8788      6.3055      9.3511
H      3.0178      6.8272      9.1742
C      6.0985      2.2768      2.4476
H      6.0408      4.6036      7.0705
H     -5.9835      8.8596     11.2514
H     -8.1324      7.2445     10.5215
C     17.8230     10.8112     17.6010
C     -3.0478      8.5185      5.1845
O      1.9741      8.8207      4.7775
C     -1.7444      8.1786      7.2617
C      8.6660      8.0725     12.0389
C     20.4132      7.7556     12.9431
C      6.4139      7.0248     -0.8428
H      5.3206      3.7423      1.1912
H     18.0599     10.1350     14.5662
H      1.7186     -1.1217      2.5894
H     -5.1190      6.6189      7.7484
C      7.2826      6.3907     10.9280
C      7.6505      5.6290      3.1265
H     21.8540      8.8718     14.5766
C     -1.2833      6.8128      5.0766
H     16.5181      8.6794     21.1674
H      4.4015      0.0284      2.2650
H     -7.9312     10.2422     10.5027
H     15.8085      7.3390     13.5563
C     -3.2709     11.3712      7.6007
C      5.8510      5.4217      9.0019
C     16.0574      7.7830     17.9824
C      4.6957      6.0268      0.2848
C     17.9086      9.4280     15.3602
H     -3.4889      7.5813      5.2973
H      8.6599      7.1174      3.1198
H     -9.1758     13.8104     10.5155
H     -6.3018     12.3917      9.9301
H     17.7957     12.7309     17.2972
C     -0.2547      3.6619      9.0043
C     13.1921      8.2601     12.3232
C      1.9197      2.1665      7.7106
C     -0.4515      6.2993      1.6264
H      5.6308      7.6846     -1.2592
H     -2.0896      2.4273      4.4939
H     -7.4304     10.5368     12.3098
C      9.8886      7.3247     12.8828
O     13.8843     10.8499     12.8621
C     -6.4032      8.8936      8.1278
C     16.6978      8.4414     20.1362
C     -9.2550     14.2940      9.5850
C      2.8536      1.5463      4.6614
H     -0.9614     10.1439      0.3380
H     -7.0074     12.4559      7.1120
C      4.0521      3.5893      3.1169
H     -4.3838      9.9938      5.6873
C     -2.0979      8.4628      0.5963
C     10.9460      6.7925     11.9462
H     -2.0240      9.5185      7.4645
C      4.9781      1.9701      5.0472
H     -4.1340     13.5779      9.0631
C    -10.2351     12.3582      9.2610
C     -8.0979     10.9789      8.3310
C     -2.4061      5.3943      3.2681
C     16.7052      9.7149     19.4095
C      2.6200      3.6986      2.5491
C     -8.1627      7.9825      9.8247
H    -10.1463     12.1819     10.4060
H     16.1851      8.8873     14.2875
H     -3.8839      4.7883      2.1186
H      1.7527      3.9110     -0.7759
O      5.3315      6.7206      6.8306
C      0.6977      8.1935      4.5334
H     17.2935     10.2681     20.2258
C     -2.9390      8.4769      3.6725
C     -2.0061      7.7648      2.8925
H     -6.8085      8.6768      7.0625
C     -2.9318      7.7417      7.6977
H      1.9065      2.0570      5.1013
H      6.1606      2.1406      1.3121
H      0.2293      3.3430      9.9925
C      3.3761      2.0581      1.0253
C     -0.0646      8.6030      1.8884
C     -0.5905      3.1713      1.3287
C     -0.1430      4.0664      4.1378
C     -5.6189     11.0748      7.1455
H      2.4331     -0.8688      4.2956
H     -3.6080      7.2692      6.8508
H     15.7920     10.2135     19.0394
H      0.2222      6.6647     -0.3121
O     -0.0431      9.8042      6.4221
C     -6.8040     11.7498      7.9286
C      0.4410      7.3400      6.9272
C     15.1941      8.0864     14.1730
H     15.3173      8.4277     16.0166
C      0.5635      7.6755      3.0895
H     -4.5690     12.2903      9.7419
C      2.6771      0.7745      3.2988
C      0.5427      2.7282      7.8559
C     -2.4941     10.3924      6.7364
C     -2.5613      3.4171      4.7695
C     18.4175     11.9565     17.7621
C     -9.2764     16.6355     10.0344
C      0.8026      2.4492      0.8942
C     -1.3670      7.8500      1.6531
C     -8.7827     12.1551      8.5312
N      2.0611     -0.4312      3.3471
H      3.6890      1.5211     -0.8276
C      2.9565      1.3800     -0.2353
O     16.9752      6.6665     15.6452
C      9.2476      6.5785      0.9024
H     18.7853      9.4960     18.7090
H     -0.0296      1.9109      8.3660
C     -3.0124      4.5841      2.4403
C     -2.6838      7.3216      9.1100
H      1.8598      1.7394      6.7025
H      7.8893      4.8958      0.3122
H     -5.0427      9.1352      6.7639
C     -1.7484      9.5093     -0.0218
H     -8.5127      7.5008      8.9697
H      2.0178      8.0928      8.8940
H     -1.2601      9.7936      4.4699
H     14.8265      9.2436     11.1456
H      2.3446      1.9451     -1.2564
H     -1.1644      3.3236      8.9323
C     14.9064      7.5748     15.5150
H      5.1799      5.3799     10.0256
C     13.9950      8.5530     11.0359
C     -7.0808     10.6606     11.2103
H     -9.2278     16.1935     11.0517
H     15.6894     10.9050     17.2779
C      4.3484      8.4274      4.5641
C      7.6505      6.9974      2.6083
C     21.0705      9.5932     14.3651
C     18.8379      8.4112     15.1472
C      4.0689      6.0855      6.4214
C      2.0162      5.3295      2.3570
C      5.9512      5.9523      0.0952
C      5.5502      7.6476      4.5484
C      7.9386      6.7775      1.0625
C      4.0805      4.9605      7.4946
C      1.6975      5.3221      0.8974
H     -2.8834      5.7990      5.9843
C      6.0809      7.0893      5.6427
H      9.6618      5.5534      0.7038
H      0.4218      1.2797      0.5483
C      7.0261      5.3174      0.8730
H      0.2219      3.1592      3.2904
H     -2.1213      6.5250      8.9014
O      7.4596      6.9589      5.6657
H      8.7020      9.2824     11.9589
H      1.9972      3.0274      3.5756
H      3.2705      4.0842     -0.1237
H      4.7602      5.5302      4.1136
C     12.0701      7.5925     11.7617
C     15.5793      6.4204     15.9106
H      1.1082      6.7681      9.3806
C     -1.7433      4.4818      4.3076
C      0.2421      7.0942      5.3953
H     -8.2883      8.8514     10.5383
H      2.6192      0.0015      6.9079
C      1.2084      6.0188      4.9319
H      2.3291      0.2849      1.5915
H     16.5571     11.3474     15.5630
H     -0.2872      7.9681      8.9812
C     -4.9727      6.8160      8.7361
C     -8.3525     13.6387      8.4631
C      6.3844      7.4923      3.2678
C     -3.2801      9.9843      5.5230
C     -0.0446      6.3865      3.0877
C     -1.4959      6.5832      3.7110
H     17.7345      8.1936     20.3647
H      4.4035      6.7513     -0.3880
H     -2.5913      3.2199      5.7720
C    -10.7036     13.6799      8.8959
C      0.7649      5.4048      3.7413
C      5.0851      3.1507      2.1816
H      2.0799      4.7027      8.1539
H     -4.0190      8.4547      9.6611
H     -2.7584     12.2639      7.6121
H     -5.3004     11.3200      6.0822
C      2.0888      7.0266      8.7433
C     -1.7760      5.4817      5.7594
C      3.2560      0.7090      1.9505
C      1.3987      4.7503      6.0008
C      1.8491      6.6760      7.4130
C      2.2410      4.0985      0.2535
H      4.4245      2.5250      0.8470
H      3.0023      0.2140     -0.1374
H     -1.4964     10.6817      6.4430
H      5.2079      0.7361      3.6389
C     -0.6835      9.2448      5.2491
C     -4.0563      7.4170      9.5435
H      3.5424      5.9635      0.6907
H     21.4142     10.1849     13.4299
C     -4.4392     11.8715      7.6936
H      9.6822      6.6664      1.9206
H     -3.1817     10.7390      4.6834
C     -0.5785      7.7228      7.8882
C      0.5066      3.6845      5.5247
O      8.3232      5.3784      4.1697
C     -1.7649      8.1379      5.7758
C     -6.6151     14.3542      7.2303
C      5.3588      1.5070      6.2273
C      3.2860      0.4977      6.3472
H      8.0912      7.7496      5.3007
H     -5.8118     15.2761      7.3300
H      5.8185      3.3670      8.1800
H     -4.6973      9.7826      8.5167
H     -0.3776      9.3809      7.2210
H     19.2113     12.4420     18.2829
H    -11.1150     12.1798      8.8471
C      1.7814      5.2425      7.2047
H     -0.3083      4.4021      1.7771
C      3.8300      5.4259      4.9798
C     -9.2401     15.7202      9.1939
H     20.9554     10.3431     15.1913
C      8.4149      7.2276     10.8517
H      3.4237      5.2086      8.3860
H     10.6934      6.2895     10.7668
H     -5.8010     13.7104      6.8345
C      3.7586      2.6188      4.4896
C     17.6955      9.5658     18.3389
C     -6.0798     12.8034      9.0127
C     -5.3473      9.6377      7.6098
C      5.4758      4.6419      7.9355
C     -6.9302     13.8034      8.5312
H     -0.2730      4.8378      8.8506
H     -1.9786      7.3214      9.8833
H      0.5685      2.9688     -0.0823
H     19.1409      9.3528     13.3054
H     -0.3581      1.9370      6.1307
C     14.1208     10.0958     13.9133
H    -10.0104     17.5280      9.9829
H     -3.8930      8.7659      3.0950
