265

C     19.6998      8.7562     13.4156
N     -2.6013     10.4471      1.8196
C      3.7033      1.5104      7.1658
C      2.2812      2.6065      2.1315
C      7.5425      4.4440      1.7229
H     -3.1663      6.6868      3.0294
C      7.5462      3.3431      2.6077
C      3.2416      4.1170      5.2389
C     16.3240      7.6475     19.5623
C      6.2377      2.0618      4.1752
C    -19.9005     21.3603      8.4501
C     13.4806      8.6443     13.8340
N    -12.8611     15.9177      6.2954
C      0.6648      5.9853      0.9245
O     -1.3082      2.7771      1.8564
C      3.1893      4.0737      6.8530
H     13.6878      7.4254     11.4515
C     15.8214      6.4572     17.2101
C     17.0230     10.4003     16.1850
H    -14.8200     15.5097      6.9740
H     17.6386      6.4295     15.1693
C     17.1002      8.8718     15.9833
H    -21.0803     20.2755      9.5088
H    -11.0218     17.4560      9.4960
H     -7.3756     14.0169      9.7325
C      2.8205      2.8611      7.6099
H      7.4020      2.2589      4.4740
O     14.1282     10.5480     15.4243
C     -5.7007     11.7902      9.5202
C      6.2598      6.1249      9.5062
H      2.9572     -0.3170      5.8647
H      4.2256      4.4439      8.5500
C      6.2592      2.9714      2.8821
H      5.6589      3.5053      7.0682
H     -9.7710     11.6160      9.4287
H    -10.7546     20.9396      8.9710
C     17.4536     10.5940     17.4212
C     -2.6220      8.9194      5.3855
O    -10.6882     21.7802      4.4776
C    -14.0830     21.0956      7.1881
C      8.8282      7.8629     11.7609
C     20.6561      7.5159     12.6460
C      6.3969      6.7387     -1.2296
H      5.5284      3.6699      1.2764
H     17.5632      9.1780     13.3482
H      1.4357     -0.9983      5.5755
H    -18.1449     19.2628      8.2961
C      7.9722      3.3606      8.7970
H      0.6962      1.1170      2.2278
C      7.3234      6.4363     10.3624
C      7.8470      5.6684      2.5778
H      8.0785      7.7281      1.8778
C    -13.7923     19.8613      5.3316
H     16.2136      8.7220     21.3666
H      2.6558      5.7289      0.3180
C     -3.8275     11.2436      7.7659
C      6.2264      4.7682      9.1634
C     16.1043      7.8538     17.8560
C      4.8279      5.0934     -0.9862
C     17.6548      8.7067     14.4920
H     -3.4091      8.1103      5.4400
H      8.1026      7.5949      3.5335
H    -10.0238     13.9767     10.6516
H     -7.5755      9.9685      8.5833
H     -2.0169      2.7948      1.2769
H     18.7867     12.6565     17.0813
C    -13.5767     16.3479      8.3185
H     21.0486     10.4803     13.6943
C     13.2867      8.9195     12.3202
C    -11.3830     15.0388      7.8187
H     11.4785      5.8858     11.4715
C     -1.0025      6.0264      1.7168
H      5.5323      7.4469     -1.2819
H    -14.9934     15.8609      5.2266
H     19.4518      9.5569     12.6511
C     10.2241      7.1695     12.5101
O     15.6454      9.8447     13.8873
C    -18.8606     21.2831      7.4288
C     16.8029      8.8289     20.3361
C     -9.8637     14.5214      9.6142
C      2.6549      1.2779      4.7420
H     -3.5317     10.9350      1.5382
H     -5.6870     13.6867      7.4397
H     -9.3583     19.7672      8.4936
C      4.1776      3.4357      3.1386
C     -2.3384      8.0734      0.6038
C     11.5444      6.7884     11.9934
C      5.3849      2.5105      5.2028
H     17.1360     12.8004     17.6443
C    -11.2839     12.7445      8.6926
C     -8.7564     11.5314      7.3847
C    -14.8507     17.9198      4.4459
C     16.5607     10.0203     19.6221
C      2.7211      3.6448      2.7095
C    -20.3683     20.0587      8.9498
H    -11.5812     11.8955      9.5035
H     14.6416      7.2826     12.6817
H      8.4260      5.3772      4.4050
H      1.5871      3.0372      0.1112
O      5.6396      6.7299      6.4323
C    -12.0601     21.2553      4.3227
H     -8.5333     12.2401      6.4563
C     -2.5122      8.4288      3.9183
C     -2.1270      7.2287      3.2424
H     -5.0498     10.0954      8.3918
H      8.4331      3.0751      2.8191
C    -15.2958     21.3379      7.7497
H      2.5026      3.9440      4.5591
H      3.8717      4.8654      0.7151
H    -13.5250     16.3406      9.4488
C      3.2967      1.4116      1.9147
C    -13.2402     21.2997      2.1684
O      4.1164      4.2495     -0.0929
O      7.3303      3.9542     10.8914
C     -0.1118      2.7528      1.2525
C    -12.7984     16.8897      4.0699
C    -19.1017     23.7693      7.4291
H     15.7567     10.2093     18.7865
H     12.2709      8.3131     10.5346
O    -12.6813     22.9894      5.7698
C     -7.4145     11.0580      8.1327
C    -11.9588     20.4156      6.8356
C     14.2956      7.3593     13.6382
H     15.9666      7.5907     14.7726
C    -12.3889     20.6034      3.0037
H     -5.1987     12.4853     10.1802
C      2.3078      0.0055      3.8667
C    -12.7643     15.3777      7.3510
C     -2.8300     11.0593      6.6719
C    -15.1407     16.2763      6.2561
C     17.9674     12.1842     17.8300
C    -10.0844     16.9677      9.9213
C      0.8834      2.2353      1.8403
C     -1.5111      7.4149      1.7609
C     -9.7031     12.2498      8.5591
N      1.7313     -0.8698      4.5759
C      3.7478      1.4527      0.2874
O     16.9840      5.6465     14.8746
C      9.4599      5.8756      0.6241
H     18.5245      9.0281     18.6976
C    -15.6736     17.5271      3.4710
C    -15.4250     21.2994      9.1999
H      8.0883      3.6372      7.6852
H      1.7746      0.9973      6.6511
H      8.2383      3.5154     11.0924
H    -17.4793     22.4967      6.6924
C     -2.8419      9.3551      0.8469
H    -20.4074     19.2835      8.0227
H    -11.0083     19.1702      9.2543
H    -13.4868     22.2110      2.8338
H     14.0121      9.2085     10.6327
H      4.6133      0.7799      0.3080
H    -14.5215     15.8635      8.5558
C     15.1385      7.2593     15.0026
H      3.2024      1.1359     -0.6189
C     14.2695      9.5775     11.6444
H      7.9433      5.5744     10.5697
H      2.0614     -1.7279      4.1377
C      4.5218      8.0692      4.2351
C      7.7329      7.1069      2.6264
C     20.4314      9.9190     14.3760
C     18.9754      8.0640     14.4136
C      4.2587      6.4021      6.3743
C      2.1989      4.9883      2.5800
C      6.1252      5.4352     -0.5080
C      5.5702      7.2308      3.9326
C      8.1821      6.1995      0.3100
H     14.2050     10.5948     11.8337
C      4.4793      5.1559      7.7001
C      1.8657      5.1114      0.9266
H    -16.0578     22.1656      7.6950
C      6.5033      6.8669      5.2534
H      1.7600      2.0362      4.6557
H    -15.1400     17.0288      2.5598
C      7.0888      5.1166      0.3513
H    -13.9554     17.3438      3.9123
O      7.7164      6.9124      5.3149
H      9.0918      8.9228     11.6659
H     19.3330     10.6809     14.3437
H    -12.6109     16.1809      3.3081
H      4.6444      5.4150      4.0405
C     12.6070      7.9324     11.5015
H      6.6957      5.1432      7.2747
C     15.8332      6.0758     15.7526
C    -14.8672     17.7144      5.8309
C    -12.2111     20.2026      5.4466
H    -19.9727     21.9835      9.2347
H      3.4681      1.8479      4.9390
C    -11.5368     18.9111      4.6931
H    -11.7446     12.5299      7.6567
H      2.4139     -0.9768      2.2587
H     13.1083     10.3733     15.4035
H    -15.0010     20.9400     10.0520
C    -17.7063     20.2910      7.8237
C     -9.0661     13.6729      8.5919
C      6.2743      7.4235      2.7354
C     -2.8653     10.2623      5.2991
C    -13.0264     19.0178      3.1551
C    -14.1171     19.2827      3.9732
H     -3.4870     11.6214      8.7408
H      2.3504      4.0981     -0.7927
H      5.2481      4.4077     -1.9719
H    -16.3419     16.3989      6.3725
C    -11.2945     14.1398      8.9796
H     -1.7797     10.5477      6.9855
C    -12.0418     17.9832      3.5973
C      5.0611      3.3873      2.2186
H    -11.5343     17.6562      8.2572
H    -20.7910     21.4662      7.6164
C      7.2791      4.0976      9.5609
H     -1.5778     11.2901      1.4169
H    -19.2000     24.6242      6.7361
C    -10.5571     19.9682      8.5778
C    -14.2928     18.8419      6.5584
C      2.6173      0.0563      2.6134
C    -11.6684     17.9865      5.8663
C    -10.7050     19.9037      7.2154
C      1.7082      4.0015      0.0705
H     -1.0042      5.0812      1.3541
H      4.3395      1.4821      2.0346
H    -15.5699     22.5215      9.5190
H      4.4729      2.2213      0.3382
H    -17.0792     19.6004      7.2676
H      8.8094      2.9249      9.1951
H     -2.3301     11.0200      4.7077
H      6.1046      0.8937      4.0157
C    -13.0932     22.2427      4.7558
C    -16.8523     20.5798      9.1705
H      4.1864      5.9052     -1.3179
H     -3.4287      8.3637      3.4919
C     -5.1488     11.1304      8.3408
H    -16.6367     17.2667      3.6640
C    -12.8967     20.4847      7.8011
C    -12.4223     16.8334      5.3990
O      7.7265      5.3384      3.7916
C    -14.1395     21.4215      5.6678
C     -6.7233     14.3289      7.7070
C      5.0961      1.7141      6.4341
C      2.7765      0.6300      6.2302
H     -6.1223     15.3356      8.0169
H     -5.7894     11.1238     10.3177
H    -12.1032     22.4479      6.3519
H     18.5519     12.1491     18.7136
H    -13.0729     19.9978      8.7184
C    -11.1014     17.9352      7.1630
H      0.1423      3.9518      1.3531
C      3.8360      5.5456      4.9666
C     -9.5107     15.8669      9.0692
H     21.1242      9.4673     15.1440
H      0.3750      5.5764      0.0026
C      8.2470      7.6138     10.2019
H    -10.0506     16.4958     10.9080
H     11.7465      6.4654     13.0543
C      4.3560      3.2009      4.6699
C     17.5100      9.7737     18.5930
C     -7.0559     12.1545      9.1145
C    -18.6267     22.4871      6.7043
C      5.8496      4.2512      7.7243
C     -7.6748     13.4908      8.8248
H    -13.9780     17.4102      7.8161
H     -3.7496      9.8197      0.3539
H      9.8771      4.8904      0.9847
C     14.4474      9.7131     14.3233
H     -9.0699     17.5551     10.0353
H     -2.2460      9.4657      3.4387
