260

C     20.1733      8.8379     13.9470
C      4.0760      1.8641      7.0179
C      2.0881      2.9680      1.3109
C      6.9730      5.1649      2.7185
H     -2.6234      3.3386      2.7940
C      7.2771      3.8099      3.1206
C      3.4426      3.9198      5.2544
C     -6.2384      9.9333     10.1958
C     16.2140      7.2035     19.5285
C      5.9065      1.4813      3.6341
C     -7.2336      9.1936      9.5377
C     13.8665      8.8815     13.8333
N     -0.3659      2.6044      6.6731
C      0.3687      5.8654      0.6226
O     -1.5436      2.4825      1.6876
C      3.1483      4.0159      6.9444
C     15.7138      6.2309     17.5940
C     16.2462     10.2565     16.7764
H    -11.7557     13.5074      9.3609
H     -3.5774      3.4624      5.3171
H     17.6697      5.9660     15.1991
H     -6.6394     10.5515     12.3126
C     17.0740      9.1377     16.2929
H     -8.6508      8.2257     11.0551
H     -5.3410     10.2519      9.9740
H      7.9853      3.6424      3.8928
H     12.7374      7.0466     11.2144
H     -0.4947      4.8183      6.6848
C      3.1338      2.8407      7.7081
H      6.8360      0.9949      3.4784
O     15.1119     10.9691     14.7299
C     -4.7627     12.7382      8.4481
C      7.0308      5.7911      9.9728
H      2.3778      0.1316      6.6166
C      6.0961      2.6746      2.7528
H      6.2893      5.0794      7.5839
H     -5.6080      9.2108     10.6945
C     17.2444     10.8211     17.7622
C     -2.8633      8.5424      5.2126
O      1.8581      8.7815      4.8872
C     -1.6238      7.5085      7.2701
C      8.8157      8.1562     11.9923
C     20.6972      7.8187     13.1152
C      6.5901      7.2377     -0.5574
H      5.1141      3.8467      1.6846
H     17.2947     10.1694     14.8381
H      1.6917     -1.0275      2.9699
H     -5.1784      5.1896      8.5696
H     14.9770     10.6635     15.6308
C      7.0425      6.4273     11.2093
C      7.9162      5.9573      3.5798
H      8.2064      7.2249      1.9110
C     -1.0955      6.6325      5.2709
H     15.5339      8.8493     20.6283
H      3.9086     -0.0794      1.3340
H     -6.5486     11.5784     11.5751
H     14.7550      7.2414     13.3261
C     -3.2116     11.4401      7.4052
C      5.6244      5.5172      9.5819
C     15.9143      7.7747     18.1339
C      4.3161      6.1473      0.5959
C     17.9645      9.3974     15.0953
H     -3.6132      7.6988      5.1517
H      8.5637      8.1632      3.4460
H     -9.2654     13.8299     10.3641
H     -6.8779     12.4560      9.5657
H     17.2615     13.0555     17.2982
C     -0.0608      3.8690      8.6569
C     13.5186      8.7057     12.4348
C      1.8906      1.9203      7.7996
H     -2.0741      6.8854      9.7931
C     -0.9212      6.2039      1.4327
H      5.7574      8.0711     -0.9457
H     -2.5745      2.4749      4.6966
H     -8.0590     10.4446     11.3959
C     10.1215      7.4748     12.7110
O     13.8099     11.0483     13.2385
C     -6.7423      8.6812      8.0902
C     16.5045      8.4064     20.3982
C     -9.4275     14.2110      9.3641
C      2.8820      1.5204      4.8139
H     -2.2610     10.2042     -0.6787
H     -7.0506     11.7339      6.5297
H     -9.4764     16.5565     11.1110
C      3.5988      3.0491      3.2266
H     -3.9823     10.4899      5.1632
C     -2.3039      8.5878      0.7489
C     11.3955      7.0589     12.1315
H     -2.5350      9.4471      7.5348
C      5.3376      2.1737      4.8909
H      4.1334      0.2620      5.8855
H     -4.5589     13.8425      7.7190
C    -10.1420     12.2831      8.5164
C     -7.8048     11.2353      8.3096
C     -2.1878      5.0910      3.7899
C     16.9116      9.7578     19.6445
C      2.1695      3.4076      2.7545
C     -8.0643      8.1772     10.0921
H     16.1263      8.5088     14.3847
H     -3.2187      5.0732      2.0560
H      1.6181      3.7078     -0.5796
O      5.9667      6.6336      6.4606
C      0.5155      8.0128      4.5936
H     17.1970     10.4154     20.4736
C     -2.5060      8.7997      3.7665
C     -2.3567      7.7158      2.9671
H     -7.4201      9.0882      7.4163
C     -2.8867      7.6147      7.8200
H      2.1127      4.0382      5.1757
H     14.4851      9.2732     10.6234
H      6.0852      2.3544      1.8927
H     -0.0616      4.8582      8.3724
C      3.0770      1.8362      1.1385
C     -0.1274      8.5174      1.9801
C     -0.3712      3.0806      1.3485
C     -0.2179      3.9227      4.2454
C     -5.5204     10.6902      7.3106
H     -3.9741      7.3414      7.2763
H     15.6653     10.0235     19.5548
H      0.1100      5.6428     -0.3976
O      0.1277      9.5452      6.3402
C     -6.7957     11.4553      7.5126
C      0.6827      7.0152      6.8064
C     15.0093      7.9672     14.0649
H     15.1592      8.6177     15.7959
C      0.5566      7.6490      3.1454
H     -4.0445     12.7934      9.3172
C      2.4271      0.5686      3.5575
C      0.3256      2.5903      7.8775
C     -2.4553     10.4248      6.7971
C     -2.5267      3.2844      5.3097
C     17.6464     12.2137     17.7656
C     -9.7088     16.6436     10.0556
C      0.7927      2.5525      0.7944
C     -1.5259      7.8080      1.6536
C     -8.7964     12.3589      8.2213
N      1.6299     -0.5203      3.8638
H      4.1779      1.4265     -0.7207
C      3.1188      1.3740     -0.2977
O     16.9137      6.4517     15.7577
C      9.4388      6.2587      0.3281
H     18.9557      9.1777     18.1854
H     -0.2353      1.7724      8.6421
C     -2.7450      4.3894      2.7597
C     -2.8991      7.1860      9.2170
H      1.5886      1.8148      6.5167
H      7.2790      4.6595      0.7306
H     -5.4323      8.7867      6.7046
C     -2.1676      9.7257      0.3100
H      5.0369      4.8998     10.2129
H      1.9525      7.9953      9.2298
H     -0.8517      9.2091      4.3733
H     15.3840      9.4399     12.1699
H      2.7792      2.1994     -0.8980
H     -0.3031      3.7686      9.7473
C     14.8722      7.5541     15.4781
C     14.6748      9.0184     11.7184
C     -6.9987     10.6866     11.4215
H     15.2201     10.3837     17.0929
C      4.3808      8.3835      4.4919
C      7.7488      7.2904      3.2629
C     21.2010      9.4718     14.7605
C     19.1270      8.5809     14.7927
C      4.4946      6.0248      6.2958
C      1.7484      4.8033      2.8087
C      5.8518      6.3505      0.5639
C      5.5173      7.4993      4.2372
C      8.1480      6.6116      0.9030
C      4.2245      5.0625      7.4698
C      1.3578      5.0995      1.3954
H     -2.0295      5.5346      6.8823
C      6.4738      7.4830      5.4232
H      9.2693      5.7073     -0.4017
H      1.1031      1.3691      0.5700
C      7.0657      5.6851      1.2188
H     -0.3310      3.1806      3.3703
O      7.6668      7.5013      5.6117
H      8.7162      9.1194     12.1561
H     -0.3392      9.5280      2.2220
H      3.1432      4.8163     -0.0897
H      4.7275      5.9502      4.3626
C     12.6962      7.4886     12.1207
C     15.5730      6.3297     16.0485
H      1.3557      6.2556      9.4559
C     -1.6122      4.3824      4.8546
C      0.4532      6.9051      5.3739
H      1.6130      2.0279      4.8746
C      1.2034      5.6589      4.9320
H      2.3834     -0.2422      1.4876
H     16.7228     10.7986     15.8226
H     -0.2587      6.9656      9.1029
C     -5.1204      6.1843      9.0616
C     -8.4617     13.9052      8.3243
C      6.4201      7.8175      3.0183
C     -2.7682     10.3206      5.4884
C     -0.1913      6.2923      3.0720
C     -1.6545      6.6026      3.7127
H      3.3488      6.7033      0.6019
H     -2.5608      2.8650      6.3448
C    -10.7767     13.8531      8.8280
C      0.5384      5.2307      3.4905
C      4.8174      3.3492      2.7656
H      1.5034      4.3318      8.0912
H     -6.8941      7.7167      8.3010
H     -2.5657     12.0013      7.7642
H     -5.4216     10.7224      6.1417
C      2.0405      6.8804      8.6683
C     -1.3133      5.3716      6.0714
C      3.0457      0.5035      1.9220
C      0.8309      4.7169      6.0102
C      2.0963      6.3603      7.3043
C      2.0958      4.3216      0.4523
H     -1.6038      5.5444      1.3249
H      3.8984      2.2885      1.4175
H      2.8650      0.4114     -0.5525
H     -1.4011     10.7918      6.7726
H      5.0919      0.6817      3.3673
C     -0.4556      8.8668      5.2913
C     -4.2119      7.0932      9.5775
H      4.0620      5.2070      0.8374
H     21.8032     10.2246     13.9991
C     -4.4700     11.4933      7.7559
H      9.9329      5.5924      0.9761
H     -2.0507     10.3436      4.8482
H     -6.8870     14.3963      9.3185
C     -0.4307      7.2923      7.8413
C      0.3437      3.5205      5.4968
O      8.7951      5.6194      4.6080
C     -1.6591      7.8569      5.7630
C     -6.4786     14.2985      6.9292
C      5.2855      1.7747      6.2430
C      3.2434      0.8376      6.1054
H      8.6133      6.4414      5.3269
H     -5.6113     15.0792      7.2263
H      5.6359      3.6117      8.1080
H     -4.5695      9.2643      8.2044
H      1.0762      9.2638      6.2758
H     18.5494     12.2496     18.4787
H    -10.6372     11.5391      7.6981
C      1.7632      4.8513      7.1503
H     -0.5066      4.2988      1.2012
C      3.9521      5.4044      4.9704
C     -9.6516     15.6723      9.2120
H     22.1410      8.9103     15.0938
C      8.2378      7.5443     10.6768
H     -5.7324     13.5568      6.8355
C      3.9180      2.5849      4.5949
C     17.8925      9.6413     18.4634
C     -6.2201     12.5113      8.6038
C     -5.4794      9.2116      7.6152
C      5.4856      4.6390      8.1331
C     -6.9917     13.7328      8.3599
H     -1.1183      3.8240      8.1956
H      0.8089      2.8980     -0.1359
H     20.0313      9.4144     12.9574
H      7.9995      5.6109     11.4448
H     -1.3274      2.1636      6.7408
C     14.2627     10.1918     13.9566
H    -10.0912     17.7103     10.0143
H     -2.4175      9.8597      3.4565
