261

C     19.8138      8.4008     13.5129
N     -3.0844     10.3893      1.8531
C      3.5512      1.8265      7.0000
C      2.2166      2.6122      1.8244
C      7.3985      4.5524      1.7379
H     -2.7821      6.7542      2.4403
C      7.4533      3.2963      2.4417
C      3.3853      3.9856      5.2908
C     16.5006      7.4060     19.5750
C      6.3963      1.7459      4.0548
C     -6.5486      8.2909      8.9095
C     13.4795      8.9174     13.7864
N      0.3968      2.8822      6.4863
C      0.7749      6.4786      0.6529
O     -1.5466      2.7480      2.1279
C      3.0840      4.1682      6.8060
H     13.3712      7.7879     10.9646
C     15.6387      6.2817     17.3373
C     16.7925     10.1553     16.3817
H     -1.6313      2.1425      6.5746
H     17.3173      6.1903     14.4950
C     17.0056      8.8811     15.9615
H     -7.6895      6.9456     10.0876
H    -10.6943     17.4949      9.4777
H     -0.6838      5.4052      6.9603
H     -7.3639     14.2401      9.3164
C      2.9294      2.7291      7.8815
H      7.5011      1.8246      4.2386
O     14.2606     10.6279     15.5434
C     -5.3287     12.0713      9.5260
C      6.6855      6.0253      9.3965
H      2.2209      0.3241      6.8446
H      3.9303      4.9270      8.6137
C      6.2442      2.5857      2.8712
H      5.7290      3.5436      7.2830
H     -9.1213     11.5733      9.4224
H      1.8686      8.0778      8.6595
C     17.6581     10.8046     17.3908
C     -3.0459      8.7499      5.3830
O      1.9970      8.7444      4.9901
C     -1.2171      8.4494      6.9543
C      8.8290      8.0623     11.9178
C     20.5875      7.3652     12.7454
C      6.4735      6.7567     -1.0785
H      5.0734      3.3006      1.3260
H     17.0648      9.6066     14.0986
H      2.4463     -0.7767      5.4177
H     -5.3197      6.2450      8.2763
C      7.5310      2.8658      8.6932
H      0.6952      1.2324      2.2574
C      7.4217      6.5306     10.6615
C      7.7804      5.4433      2.4985
H      8.3559      7.5946      1.8898
C     -1.0128      6.8561      5.3440
H     16.8859      8.8107     21.1337
H     16.4544     11.1429     15.9095
H      2.6870      5.6826      0.6743
C     -3.5508     11.2113      7.8101
C      6.1892      4.7079      9.0823
C     16.1501      7.7169     17.9840
C      4.5222      5.2960     -0.2496
C     17.5737      8.7486     14.6129
H     -3.7882      7.7534      5.4847
H      8.4651      7.5159      3.3792
H     -9.4083     13.9000     10.8282
H     -7.5688     10.6112      9.4225
H     18.8489     12.6061     16.8193
C     -0.3025      3.2903      8.6609
H     19.4698     10.1702     14.4863
C     13.3514      9.1704     12.3398
C      1.7281      1.8853      8.1053
C     -0.4879      6.3420      1.5904
H      5.5245      7.3852     -1.3967
H     -2.6530      2.6566      5.0863
H     19.1338      8.8553     12.7712
C     10.2013      7.5401     12.6795
O     15.7826     10.6292     13.7009
C     -5.8930      8.3175      7.6461
C     17.0568      8.5642     19.9990
C     -9.3750     14.4913      9.6206
C      2.6462      0.9799      4.4996
H     -2.5802     10.6090      2.6339
H     -3.4844     11.1293      1.3306
H     -6.7984     12.7068      6.6247
H      3.7069      6.8496      9.3745
C      4.0776      3.6066      3.2586
C     -2.2845      8.0657      0.8866
C     11.4094      6.8936     11.9139
C      5.5217      2.3234      5.2557
H     17.0913     12.3688     16.6607
C    -11.0645     12.5831      8.8649
C     -8.6525     11.1558      7.6150
C     -1.8202      4.9835      3.9778
C     16.8730      9.9663     19.4102
C      2.7423      3.8353      2.6224
C     -7.1956      7.1399      9.1954
H    -11.1033     11.6194      9.6480
H     15.5180      7.9552     13.5415
H      8.7709      5.2414      4.2743
H      1.0807      2.9589     -0.0331
O      5.7822      6.2512      6.1554
C      0.5409      8.3848      4.2848
H     -8.4275     11.8380      6.6034
C     -2.8463      8.5336      3.7391
C     -2.2114      7.3047      3.1113
H     -5.1227      9.8948      9.0627
H      8.1392      3.2142      3.5219
C     -2.3035      8.6872      7.6406
H      2.3352      3.8665      4.9418
H      3.7008      4.3383      1.1111
H      0.3388      3.8749      9.2570
C      3.2900      1.3067      1.7856
C     -0.2414      8.6702      2.0963
O      4.2929      3.9559      0.2252
O      7.1815      4.0286     10.9300
C     -0.2747      2.9343      1.5298
C      0.2555      3.8788      4.0149
C     -6.1740     10.6824      7.5692
H     15.9365     10.1783     18.7246
H     -0.7974      9.9141      3.8692
H     12.2006      8.6865     11.1455
C     -7.3468     11.0999      8.3333
C      1.0024      7.3513      6.7268
C     14.5037      7.7903     13.9712
H     15.5897      8.5533     15.6213
C      0.5663      7.8216      3.0857
H     -4.7031     12.9815      9.4571
C      2.2326     -0.0970      3.6730
C      0.5684      2.7449      7.6920
C     -3.3723     11.1622      6.4802
C     -2.4036      3.1084      6.0228
C     18.0924     12.2213     17.2453
C     -9.8251     16.9018      9.9917
C      0.8648      2.1410      1.6489
C     -1.3388      7.5529      1.7428
C     -9.4756     11.9834      8.5819
N      2.4308     -1.1427      4.4499
C      3.6980      1.4600      0.3990
O     17.1629      6.1098     15.4230
C      9.7197      6.2035      0.3512
C     -2.8224      4.4752      3.0809
C     -2.4633      8.6053      8.9904
H      7.3287      3.5367      7.9377
H      1.4286      1.5270      5.8815
H     -4.9737      9.4801      6.2129
C     -3.0342      9.0550      1.2030
H     -8.1406      6.7233      8.5188
H      1.8135      6.2929      9.3263
H     -1.0300      9.5219      2.2151
H     13.9957     10.1239     10.4007
H      3.7585      0.5822     -0.3338
C     14.9632      7.5588     15.5473
H      2.9611      2.3252     -0.2507
C     14.2878      9.7778     11.4939
H      7.9441      5.4700     10.9603
H      2.0514     -2.0871      4.3048
C      4.5054      7.9742      4.1485
C      7.9503      7.0439      2.5228
C     20.4759      9.5790     14.3114
C     18.8201      8.1361     14.5298
C      4.3500      6.1607      6.4272
C      2.0212      5.0555      2.4524
C      6.0646      5.5835     -0.2079
C      5.7748      7.2415      3.7927
C      8.3923      6.0808      0.2741
H     14.8541     10.5423     11.8535
C      4.2794      5.0793      7.5377
C      1.8279      5.1223      0.9295
H     -3.1603      8.8175      7.2103
C      6.4751      6.9845      4.9655
H      2.4697      1.8450      3.9084
H     -2.4605      4.1236      2.0598
C      7.1673      5.0379      0.4000
H     -0.6023      3.1629      3.7882
O      7.6774      6.8524      5.3690
H      8.7397      9.1234     11.9221
H     21.0428      9.4474     15.0339
H      1.2995      3.1716      3.8331
H      1.2983      4.3503     -1.1302
H      4.6015      5.2846      4.2060
C     12.5274      7.9191     11.7198
C     15.7544      6.2897     15.7790
C     -2.0307      4.6398      5.5788
C      0.5151      7.0985      5.2522
H     -7.0280      9.3659      9.0642
H      3.7180      1.0514      4.4298
C      1.2873      5.8702      4.7228
H    -11.7226     12.5112      7.9059
H      2.3721     -0.7695      1.5083
H     15.2065     10.4893     15.8927
H     -2.0189      7.5438      9.2008
C     -4.6223      7.1605      7.9526
C     -8.8973     13.5104      8.6096
C      6.2992      7.0114      2.5396
C     -3.2983     10.1626      5.1679
C     -0.0266      6.3170      3.1063
C     -1.2597      6.3628      3.8388
H      2.5855      3.5883     -0.3564
H      3.8326      5.5656     -1.2546
H     -2.7332      3.8135      6.7531
C    -10.8320     14.0980      9.1553
H     -2.2869     11.5469      6.6114
C      0.8366      5.2282      3.3987
C      5.0957      3.2832      2.3750
H      1.5158      5.0434      7.9213
H     18.1441      8.4533     19.9230
C      7.2214      3.8359      9.6318
H     -5.9810     11.2807      6.6131
C      2.5359      7.0487      8.7903
C     -1.1118      5.4701      6.0842
C      2.4455      0.0488      2.3207
C      1.0178      5.0308      5.9097
C      2.1808      6.7444      7.4138
C      1.6133      3.8318     -0.0480
H     -1.2825      5.5358      1.5815
H      4.3874      1.2011      2.1795
H     -2.9461      9.5756      9.3497
H      4.8039      2.0283     -0.0342
H      8.5648      2.9896      8.5801
H     -2.2921     10.7643      4.8162
H      6.3294      0.8283      3.9353
C     -0.3376      9.4225      4.8169
C     -4.0603      7.6904      9.2046
H      4.1553      6.2849      0.1641
H     -3.5698      9.1887      3.2628
C     -4.9801     10.9128      8.5539
H     -2.9521      3.5516      3.5346
H     -3.8059     10.2392      4.2357
C     -0.0103      7.8645      7.5417
C      0.5257      3.6542      5.5328
O      7.8480      5.0306      3.8699
C     -1.5131      8.5196      5.5455
C     -7.0421     13.6303      7.2350
C      5.0285      1.7408      6.3308
C      2.3845      0.9408      5.9523
H     -5.8255     13.7058      7.2278
H     -8.1664     16.1776      9.0461
H     -5.5487     11.2338     10.4731
H     17.8559     12.8965     17.9376
C      1.9800      5.3161      7.0040
H     -0.1302      4.0929      1.0132
C      3.7747      5.4454      5.1471
C     -9.2165     15.8971      9.1018
H     20.7263     10.3691     13.6363
H      0.1802      7.1185     -0.1335
C      8.4311      7.5997     10.4363
H    -10.4563     16.5252     11.0298
H     11.8143      5.8151     12.4785
C      4.5133      3.2635      4.6740
C     17.8728      9.9069     18.4018
C     -6.8714     12.2380      9.1997
C     -5.8470      9.4118      6.7330
C      5.4474      4.3955      7.8982
C     -7.3255     13.4435      8.7034
H     -0.7976      3.7666      7.8667
H     -3.9170      8.8393      0.5638
H     -7.1675     12.3048     10.3407
H     10.3161      5.3325      1.1749
C     14.7267      9.9593     14.1765
H     -8.8559     17.5616     10.4418
H     -2.0170      9.2511      3.4437
