265

C     19.7697      8.8085     13.8172
C      4.0496      1.5263      7.1642
C      2.3436      3.1055      1.2585
C      7.0020      4.7741      2.5033
H     -2.9617      3.3818      3.0648
C      7.0773      3.4391      2.7133
C      3.5093      4.0714      5.4546
C     -6.0960      9.6912     10.6855
C     16.0455      7.2559     19.4025
C      5.9260      1.7039      3.8321
C     -6.7975      8.6756      9.7349
C     13.8200      8.5287     13.6058
N      0.0537      3.1547      6.6094
C      0.6708      6.1289      0.6609
O     -1.6083      2.7208      1.3432
C      3.4991      3.7296      6.7214
C     15.7033      6.2295     17.4072
C     16.4538     10.6857     16.6002
H    -11.2027     14.2391     10.0137
H     -3.3753      3.7981      4.7952
H     17.0708      6.4307     14.3234
H     -6.8932     11.7808     10.9500
C     16.9782      9.3170     16.0924
H     -5.2186     10.0960     10.1743
H      7.7095      2.8321      3.5706
H     12.6557      6.8858     10.7796
H     -0.9009      5.2767      6.4926
C      3.1915      2.5318      7.5713
H     -2.5050     10.3300     -0.6880
H      6.3452      0.6220      3.7298
O     14.9019     10.6565     14.6629
C     -4.8488     12.7541      8.9696
C      7.0332      6.2432      9.5100
H      3.2231      6.9820      9.0811
C      6.1333      2.3747      2.4465
H      6.6330      5.0240      7.0571
H     -5.5472      9.1000     11.4719
H     -8.0969     10.1287      8.9758
H     -7.6350      6.8413     10.3648
C     17.5111     10.8938     17.6895
C     -2.7908      8.5128      5.0567
O      1.8488      8.9141      4.6994
C     -1.5439      7.8257      7.0632
C      8.7120      7.9372     12.3475
C     20.2175      7.5961     13.0155
C      6.4730      6.7802     -0.8328
H      5.2421      3.6803      0.9746
H     18.5344     10.4052     14.7534
H      2.1648     -1.0433      3.2095
H     -4.3502      6.2288      7.9797
C      7.2158      6.5581     10.9346
C      7.6849      5.5647      3.4749
H     21.8999      9.0191     14.7908
C     -0.9730      6.7784      5.0470
H     15.4131      8.7597     20.2390
H      4.2946      0.4891      2.1651
H     -7.5114     10.6621     10.3388
H     15.6644      7.2202     13.0300
C     -3.2577     11.1783      7.8770
C      5.9974      5.3192      9.0610
C     15.9046      7.7513     17.8951
C      4.7675      5.8532      0.4379
C     17.9427      9.5705     15.2794
H     -3.4805      7.7175      5.3931
H      8.7183      7.3713      3.3127
H     -8.9571     14.1285     10.6689
H     -6.5185     12.3729      9.8270
H     17.9906     12.6678     17.0830
C      0.2990      3.7868      9.0923
C     13.1694      8.3516     12.3427
C      1.7792      1.8801      7.9040
C     -0.6498      6.3952      1.5153
H      5.5828      7.2588     -1.5533
H     -2.2242      2.4300      4.3695
H     -7.4688     10.8218     12.0594
C      9.9910      7.3169     12.9130
O     13.7860     10.6885     12.6881
C     -6.5192      9.0012      8.4722
C     16.5883      8.4520     20.2004
C     -9.3827     14.3101      9.5369
C      2.4775      2.1283      4.1467
H     -0.9207     10.0588      0.2530
H     -7.4179     12.0976      6.7644
C      4.1161      3.4588      3.0543
H     -4.1336     10.2528      5.6980
C     -2.1152      8.4358      0.4565
C     11.0313      6.9012     11.9332
H     -2.0074      9.7163      7.5291
C      5.2022      2.1392      5.0055
H      4.1116      0.4109      5.3774
H     -4.4423     13.6226      8.3356
C    -10.2171     12.3860      9.0405
C     -7.9980     11.2049      8.3293
C     -2.1493      5.0248      3.4251
C     16.7256      9.6468     19.4735
C      2.4459      3.5616      2.5482
C     -7.8667      7.7042      9.8204
H     -9.8675     12.1383     10.0496
H     15.8395      8.5345     14.1616
H     -3.4785      4.8577      1.9289
H      1.3980      3.7406     -0.2567
O      5.6762      6.9845      6.5588
C      0.6022      8.3303      4.4858
H     17.4276     10.2367     20.0022
C     -2.6084      8.7488      3.6385
C     -2.2214      7.6767      2.9079
H     -7.4132      8.8471      7.9590
C     -2.6514      7.6512      7.7547
H      1.6018      2.0065      4.7526
H     13.4821      8.3584     10.2684
H      6.5614      1.9025      1.4444
H      1.1083      3.5598      9.7694
C      3.2008      1.8377      0.9825
C     -0.1371      8.5995      1.8873
C     -0.5412      3.2081      1.6063
C     -0.0533      4.0264      4.4401
C     -5.5307     10.9588      7.2018
H      1.8187     -0.1955      4.7519
H     -3.5674      7.8956      7.3456
H     15.6332     10.1679     19.1380
H      0.7593      6.3144     -0.2704
O      0.0919      9.6362      6.2286
C     -6.7383     11.6592      7.5877
C      0.6705      7.3401      6.8630
C     15.0656      7.9542     13.9832
H     15.5456      8.1328     15.9173
C      0.3987      7.6290      3.0465
H     -4.3198     12.4652      9.7877
C      2.6748      0.9414      3.3332
C      0.5305      2.6204      7.8735
C     -2.3110     10.4162      6.9316
C     -2.4531      3.1341      5.0229
C     18.1908     12.0484     17.8699
C     -9.9424     16.8634      9.8164
C      0.7742      2.5687      1.2790
C     -1.2074      7.8108      1.5181
C     -8.9185     12.3797      8.4200
N      1.8785     -0.1717      3.6842
H      4.1076      1.5811     -0.7473
C      3.1702      1.4729     -0.4563
O     17.0257      6.7591     15.4563
C      9.5272      6.3484      1.1219
H     18.6889      9.2354     18.8956
C     -3.0903      4.3398      2.7833
C     -2.5133      7.4283      9.1291
H      1.5975      1.4511      6.8406
H      7.7051      4.4090      0.5948
H     -5.4654      8.4041      6.9986
C     -1.8225      9.4832     -0.2698
H     -7.5619      7.0937      8.9349
H      1.9807      8.1652      9.1515
H     -1.1189      9.9585      4.3507
H     15.3382      8.7520     11.6800
H      2.3122      2.1748     -0.8800
H     -0.7500      3.8199      9.4761
C     14.6919      7.4233     15.3743
H      5.0116      5.2008      9.5459
C     14.1051      8.3302     11.2877
C     -6.9673     10.7071     11.2041
H    -10.3303     17.0832     10.8294
H     15.7186     11.0748     16.8990
C      4.3092      8.4214      4.3080
C      7.7051      7.0041      2.7180
C     21.0072      9.4947     14.4358
C     18.9215      8.3775     15.0839
C      4.0258      6.1503      6.3991
C      1.8112      4.9087      2.7691
C      6.0124      5.8922      0.1514
C      5.4993      7.5114      4.2744
C      7.9786      6.5978      1.3094
C      4.1288      5.0563      7.4134
C      1.4885      5.1707      1.1606
H     -2.4499      5.8478      5.8884
C      6.1947      7.2274      5.4460
H      0.7428      1.6568      2.0247
C      7.1140      5.2751      1.1258
H      0.0959      3.2060      3.7874
H     -2.1062      6.4299      9.2241
O      7.4362      7.2650      5.5344
H      9.3065      8.7410     12.0780
H     -0.1881      9.5385      2.1427
H      2.6281      4.6196     -0.6995
H      4.6469      5.8904      4.2322
C     12.2703      7.4285     11.7005
C     15.5090      6.2158     15.8605
H      1.4828      6.6650      9.1512
C     -1.5099      4.3683      4.6946
C      0.5232      7.0159      5.1890
H     -8.8871      8.2287     10.2412
H      2.6750      1.3892      5.9663
C      1.3351      5.8783      4.7985
H      2.6435      0.0238      1.9049
H     17.0234     11.6339     15.9915
H     -0.5269      8.4012      8.7312
C     -4.9947      6.7074      8.6896
C     -8.6127     13.7402      8.4972
C      6.3565      7.5231      3.1506
C     -3.0639      9.7162      5.8383
C     -0.2499      6.2191      2.9162
C     -1.4683      6.5794      3.7031
H     17.2579      8.2712     21.1796
H      3.9485      6.3490      0.1002
H     -2.2665      3.1227      6.0313
C    -10.7535     13.8363      9.1947
C      0.5845      5.2074      3.6894
C      5.0530      3.3297      1.9928
H     -4.5724      8.4565      9.2393
H     -2.7614     11.8905      8.4718
H     -5.7625     11.4517      6.0149
C      2.1520      7.1907      8.6952
C     -1.4943      5.5348      5.6503
C      3.2771      0.8115      2.0721
C      1.4344      4.9731      6.1630
C      1.9339      6.7244      7.3388
C      2.0915      4.2985      0.1683
H     -1.6356      5.7684      1.0320
H      4.3109      2.2933      1.3049
H      2.7272      0.2050     -0.3999
H     -1.4263     10.8105      7.2152
H      4.8400      1.2013      3.7602
C     -0.5182      9.1577      5.0289
C     -3.9670      7.3093      9.6248
H      4.4770      5.0550      1.0713
H     21.3508     10.1906     13.5933
C     -4.5960     11.6625      8.0078
H      9.8408      6.6760      2.0814
H     -2.8733     10.3862      4.9179
H     -6.5953     14.6735      9.0608
C     -0.3064      7.9542      7.6432
C      0.4072      4.0212      5.8414
O      8.3111      5.3264      4.4188
C     -1.5752      7.9690      5.6141
C     -6.3954     14.5619      7.2070
C      5.2631      1.9503      6.3344
C      3.3271      0.4149      6.2236
H      7.9863      6.9641      4.7990
H     -5.9367     15.6921      7.0488
H      5.8733      3.6259      7.8427
H     -4.2790      9.3836      8.0861
H      0.8411     10.1456      6.0380
H     19.0174     12.2922     18.4179
H    -10.6349     11.4620      8.6409
C      1.4310      5.3528      7.4739
H     -0.4409      4.4011      1.5472
C      3.9921      5.5442      4.9549
C     -9.5515     15.6824      9.1343
H     20.6594     10.4373     14.8944
C      8.5212      7.1378     11.0165
H      4.1644      5.6243      8.4247
H     10.7146      6.4499     10.7139
H     -5.6824     13.9687      6.8877
C      3.8107      2.9294      4.5884
C     17.7060      9.3846     18.3082
C     -6.3544     12.6676      8.8145
C     -5.3195      9.2758      7.7206
C      5.8095      4.7958      7.7396
C     -6.9922     13.9758      8.5264
H     -0.0015      4.9305      8.5572
H     -1.5905      7.9168      9.7684
H      0.5638      2.4034      0.1524
H     19.3225      9.8346     13.4933
H     -0.4845      2.4434      6.2216
C     14.0171      9.9600     13.8674
H     -9.8230     17.6584      8.8343
H     -3.2582      9.3646      3.1219
