258

C     19.9981      8.9788     13.9811
C      3.9257      1.5856      7.0977
C      2.1266      3.0494      1.0612
C      7.3586      4.9076      2.6617
H     -3.1388      3.4443      3.0103
C      7.0608      3.7513      3.1611
C      3.3891      3.8345      5.5550
C     -6.1317     10.0767     10.3188
C     16.1301      7.1715     19.4530
C      6.0679      1.5004      3.7870
C     -7.0363      9.0279      9.6274
C     13.8659      8.9574     13.7813
N     -0.3489      2.7627      6.5620
C      0.3425      5.8041      0.6690
O     -1.4369      2.3693      1.6278
C      3.3166      4.0057      6.9515
C     15.5620      6.2333     17.5066
C     16.4718     10.3657     16.5842
H    -11.7119     13.9813      9.3853
H     -3.5198      3.6135      5.0977
H     17.0966      6.4181     14.7111
H     -6.7827     10.8617     12.2820
C     16.9761      9.0465     16.0627
H     -7.9623      8.2530     11.1638
H     -5.5333     10.5607      9.5623
H      7.8276      3.5848      3.7064
H     13.0317      6.6359     11.5029
H     -0.8087      4.9129      6.7252
C      3.1318      2.7193      7.7281
H      6.8739      1.0477      4.1183
O     15.1249     10.8320     14.7004
C     -4.7796     12.7681      8.6331
C      6.9639      5.7885      9.9006
H      2.2436     -0.1094      5.9656
H      3.0083      6.6035      9.4962
C      6.1010      2.6922      2.9289
H      6.0509      4.5746      7.9308
H     -5.4891      9.3588     10.6749
H     -8.2068     10.8828      9.3063
C     17.2494     10.7217     17.6019
C     -2.8511      8.5210      5.2899
O      2.0682      8.7876      4.9214
C     -1.4189      7.5081      7.1775
C      8.6636      8.2477     11.9956
C     20.4387      7.9137     13.1570
C      6.5281      7.1360     -0.6794
H      4.9305      3.4188      1.4445
H     17.6350     10.0213     14.3623
H      0.9823     -0.7858      2.7527
H     -4.7980      6.2543      7.8660
H     15.0904     11.0187     15.7863
C      7.4603      6.3069     11.2669
C      7.9130      5.8924      3.6953
H      8.5457      7.1016      2.3952
C     -1.0272      6.5633      5.1907
H     15.4306      8.8314     20.0481
H      3.9620      0.0973      1.6559
H     14.8043      7.3643     13.3335
C     -3.1850     11.4060      7.7116
C      5.4898      5.5275      9.6386
C     15.9982      7.5415     18.0643
C      4.4966      6.1865      0.5193
C     18.0567      9.3893     15.0502
H     -3.6654      7.9350      5.6243
H      8.6865      7.6570      3.8331
H     -9.1594     14.0004     10.3924
H     -6.7950     12.2249      9.9301
H     17.5787     12.7975     16.9253
C     -0.1048      3.8741      8.5731
C     13.5035      8.7492     12.3273
C      1.7350      1.9447      7.6922
H     -1.7621      7.5535      9.9113
C     -0.7658      6.3346      1.5271
H      6.1265      7.8035     -1.4453
H     -2.3896      2.0421      5.1716
H     -7.7422      9.7748     11.7633
C      9.9997      7.5093     12.5752
O     14.0391     11.1829     13.0486
C     -6.6889      8.8486      8.0168
C     16.3843      8.4425     20.3137
C     -9.2154     14.3053      9.4066
C      2.8577      1.4445      4.5666
H     -2.1361      9.5802     -1.1175
H     -6.6625     11.8523      6.9507
H     -9.4423     16.2774     11.3573
C      3.6136      3.0935      3.1327
H     -3.9794     10.1791      5.5071
C     -2.4232      8.4724      0.5916
C     11.2291      7.3342     11.9432
H     -2.2575      9.3909      7.5092
C      5.2055      2.2460      4.9769
H      4.0550      0.0991      5.5972
H     -4.5429     13.6486      7.9171
C    -10.3495     12.2683      8.5164
C     -8.2742     11.2024      8.2215
C     -2.2752      5.1833      3.8840
C     16.6825      9.6212     19.7705
C      2.1363      3.2577      2.6526
C     -7.9970      8.3889     10.1062
H     15.9853      8.0644     13.8488
H     -3.3676      4.8367      1.8063
H      1.5707      4.2709     -0.8027
O      5.5470      6.8519      6.4515
C      0.6600      8.0457      4.4748
H     -8.8928     10.2000      8.0178
C     -2.6057      8.7602      3.6788
C     -2.1982      7.6760      3.0109
H     -7.4988      9.2647      7.3470
C     -2.6738      7.3684      7.8759
H     14.0767      9.0303     10.5360
H      6.4764      2.1845      1.7875
H      0.0427      4.9277      8.7496
C      3.1966      1.8314      1.0381
C     -0.2886      8.5021      1.7940
C     -0.4914      3.0113      1.3238
C     -0.5110      4.1336      4.3052
C     -5.7429     10.7916      7.3439
H     -3.3879      7.9446      7.2064
H     15.7392     10.3013     19.4876
H     -0.2720      5.7286     -0.2618
O      0.1604      9.4600      6.4143
C     -6.7947     11.5352      7.9022
C      0.8115      7.0843      6.8550
C     14.9326      7.9517     14.1243
H     16.2282      8.5542     15.7272
C      0.5985      7.6949      2.9819
H     -4.0144     12.9422      9.4842
C      2.6352      0.4479      3.4897
C      0.3456      2.4873      7.8859
C     -2.1616     10.4074      7.0309
C     -2.6057      3.3225      5.3501
C     17.8814     12.0282     17.7153
C     -9.6924     16.5550     10.1671
C      0.7672      2.5964      0.6176
C     -1.3999      7.6191      1.6642
C     -9.0604     12.4181      8.1411
N      1.6597     -0.3086      3.6148
H      3.9205      1.0064     -0.8160
C      3.0085      1.3002     -0.3390
O     16.9179      6.4410     15.7129
C      9.4379      6.3439      0.4055
H     18.7843      9.4584     18.8040
H     -0.3683      1.5988      8.1232
C     -2.7206      4.3984      2.7661
C     -2.8429      7.2727      9.4285
H      1.6752      1.6097      6.4034
H      7.0224      4.8768      0.5535
H     -5.5283      8.7167      6.7260
C     -2.3140      9.6666     -0.0366
H      4.7683      4.9329     10.6140
H      2.0788      8.0292      9.1331
H     -1.3075      9.6379      5.2861
H     14.9087     10.0359     11.6906
H      2.3722      1.6437     -1.3112
H     -0.5732      3.5908      9.6963
C     14.7042      7.2904     15.4919
C     14.4965      8.9968     11.5497
C     -7.1392     10.6040     11.3939
H     15.3823     10.5320     16.9155
C      4.5233      8.2629      4.5073
C      7.9579      7.2014      3.3715
C     21.1920      9.6272     14.7852
C     19.0351      8.3337     14.7881
C      4.5072      6.1520      6.2996
C      1.7284      4.9129      2.6542
C      5.8118      6.3764      0.7049
C      5.6941      7.4731      4.2713
C      8.1991      6.5349      0.9397
C      4.1241      5.2761      7.6082
C      1.4238      5.2801      1.2437
H     -2.2967      5.7501      6.5864
C      6.4661      7.3188      5.3866
H      9.4464      5.4882     -0.1684
H      0.5021      1.7626      1.0001
C      7.0436      5.6185      1.1462
H     -0.7621      3.3148      3.8226
O      7.5202      7.3784      5.7895
H      8.5268      9.3557     12.0575
H      1.4948      3.0529      3.6544
H     -0.5350      9.1140      2.4840
H      3.3583      4.6077      0.0649
H      4.7027      5.3774      4.1136
C     12.5684      7.5717     12.1644
C     15.5528      6.1423     16.0854
H      1.3316      6.8916      9.2543
C     -1.7835      4.4311      4.8807
C      0.4672      6.9586      5.4407
H     16.8364      8.6016     21.3943
H      1.8103      2.2477      4.5887
C      1.1957      5.7199      4.8889
H      2.5048     -0.3000      1.5160
H      0.0003      6.9954      9.0889
C     -5.3184      6.3669      8.8740
C     -8.4904     13.7617      8.2998
C      6.4943      7.7349      3.1613
C     -2.9342     10.0672      5.8027
C     -0.2621      6.3201      3.0670
C     -1.6008      6.4869      3.7567
H      3.7255      6.2864     -0.3429
H     -2.5000      3.0549      6.4189
C    -10.9050     13.7039      8.6011
C      0.4397      5.2856      3.6069
C      4.7169      3.4353      2.4699
H     -6.5101      7.5983      8.1449
H     -5.8784     10.2556      6.0636
C      2.2227      6.9474      8.6947
C     -1.4107      5.5137      5.9360
C      2.9281      0.5351      1.7979
C      0.9617      4.6461      5.9500
C      2.0626      6.5162      7.1979
C      2.2172      4.3994      0.2866
H     -1.3787      5.3941      1.5290
H      3.9974      2.3295      1.5747
H      2.4179      0.3442      0.0567
H     -1.1137     10.7860      6.9577
H      5.5680      0.4765      3.2076
C     -0.4052      9.0418      5.3111
C     -4.3154      7.2871      9.5856
H      4.1990      5.4804      1.1369
H     21.8855     10.4077     13.9505
C     -4.4247     11.5875      7.6663
H     10.2288      6.3926      1.2748
H     -2.4244     10.9424      5.0941
H     -6.8579     14.7038      9.0111
C     -0.2940      7.1269      7.9179
C      0.2846      3.5616      5.5349
O      8.6934      5.4452      4.6352
C     -1.4544      7.9127      5.8473
C     -6.6769     14.2690      7.0833
C      5.2615      2.0965      6.2592
C      3.0909      0.7427      5.8711
H      8.1605      6.1432      5.2180
H     -4.4212      8.9826      8.4717
H      0.9742      9.0544      6.8210
H     18.4691     12.4173     18.4723
H    -11.0528     11.2826      8.0391
C      2.0450      4.9381      7.0338
H     -0.4865      4.1269      1.4707
C      3.8499      5.3629      5.0450
C     -9.4433     15.6474      9.1569
C      8.2959      7.3365     10.9179
H      3.6495      5.9516      8.3794
H     11.4251      6.2180     11.5506
H     -6.4423     13.3307      6.6355
C      3.8927      2.6307      4.7113
C     17.7078      9.6591     18.5205
C     -6.3719     12.4005      8.8991
C     -5.3486      9.4272      7.7988
C      5.2143      4.8310      8.3260
C     -6.9304     13.8303      8.5053
H     -1.0665      4.0838      7.9808
H      0.5594      2.9257     -0.5578
H     19.4491      9.9097     13.5874
H      7.7003      5.3457     11.7755
H     -1.3062      2.7327      6.5407
C     14.0925     10.3256     13.9615
H    -10.2157     17.5628      9.8777
H     -2.6075      9.8630      3.4786
