266

C     20.1177      8.9184     13.9815
C      3.9854      1.4952      7.0139
C      2.0922      3.0338      1.1223
C      7.1279      4.9845      2.9581
H     -2.3964      3.4077      2.8062
C      7.0944      3.6310      3.4425
C      3.5699      3.6958      5.6646
C     -6.4288      9.7186     10.5320
C     16.3655      7.1567     19.6382
C      5.9799      1.6459      3.6827
C     -7.1550      8.7953      9.6011
C     13.7840      8.7472     13.6156
N     -0.3953      2.9977      6.3491
C      0.2324      5.6513      0.6070
O     -1.4470      2.4948      1.8695
C      3.6877      3.6978      6.9841
C     15.5622      6.1132     17.3804
C     16.6617     10.3033     16.7468
H    -11.5917     14.5612     10.0093
H     -3.4867      2.7734      4.3967
H     17.5239      6.0393     15.6767
H     -7.6517     11.5458     11.5290
C     16.9086      8.9607     16.3692
H     -9.0165      8.4432     10.6300
H     -5.5973     10.1182      9.8909
H      7.9964      3.3582      4.0849
H     12.5386      6.8436     10.5907
H     -1.1084      5.1983      6.6271
C      3.1275      2.5634      7.5102
H     -2.1021      9.9143     -0.9690
H      6.9859      1.0797      3.6058
O     14.9458     10.6695     14.6913
C     -4.8479     12.6871      8.8727
C      6.6859      6.4374      9.6935
H      2.5907     -0.3039      6.3558
H      2.1441      6.4146      9.6599
C      6.1585      2.8472      2.7426
H      6.3179      4.8155      7.4506
H     -5.9992      9.2712     11.3944
H     -8.5149      7.0698     10.4067
C     17.6830     10.6413     17.6698
C     -3.0138      8.7096      5.1491
O      2.0601      8.6061      5.1323
C     -1.7500      7.9521      7.1095
C      8.8121      8.0015     12.1837
C     20.5614      7.7245     13.2428
C      6.5909      7.1153     -0.5875
H      4.4191      4.1725      1.6609
H     17.9157     10.3744     14.9869
H      0.8966     -0.9548      3.3059
H     -5.2744      6.0742      7.7861
H     15.7738     11.0187     14.0009
C      7.1140      6.8278     10.9464
C      7.8284      5.8691      3.7510
H     21.5697      9.0947     15.1274
C     -1.2129      6.6675      4.9960
H     15.6195      8.5872     20.9086
H      3.7640      0.8793      2.7613
H     -8.0173     11.0439     10.0449
H     14.8741      6.8181     13.3360
C     -3.1328     11.7905      7.5540
C      5.4632      5.7495      9.1525
C     16.1101      7.6207     18.1627
C      4.9790      5.7749      0.2783
C     17.9800      9.3695     15.5413
H     -3.6229      7.8438      5.3163
H     -9.2943     14.2244     10.5548
H     -6.8963     12.4681      9.8442
H     18.8341     12.1582     16.7461
C      0.5686      3.8400      8.6575
C     13.2760      8.2813     12.2559
C      1.6121      1.6054      7.7104
C     -0.7240      6.0674      1.6204
H      5.7224      7.7357     -0.7525
H     -1.3567      2.5106      4.5423
H     -8.2990      9.9637     11.2151
C      9.9882      7.4769     12.9138
O     14.3526     10.6779     12.4638
C     -6.9028      9.0869      8.2771
C     16.3900      8.3590     20.3491
C     -9.6142     14.4221      9.5305
C      2.8885      1.3282      4.6207
H     -0.7213     10.3077      0.4180
H     -6.9936     12.5493      6.8705
H     -9.7265     16.6565     10.9824
C      3.5838      3.0644      3.1305
H     -4.2384      9.9641      6.1700
C     -1.9625      8.5126      0.4963
C     10.9948      6.9277     11.6085
H     -1.9523      9.7220      7.5762
C      5.2418      2.2312      4.9858
H      4.2467      0.1091      5.4571
H     -4.5710     13.8007      8.8240
C    -10.4699     12.5893      8.6671
C     -8.2028     11.3972      7.8762
C     -2.2334      5.2832      3.4450
C     16.9098      9.4440     19.8307
C      2.1949      3.6415      2.5861
C     -8.5534      8.1105      9.7008
H     15.7670      8.4016     13.9156
H     -3.9827      4.1285      2.4001
H      1.7651      3.9153     -0.7896
O      5.5860      6.5867      6.4467
C      0.6678      8.1826      4.5135
H     -8.6362     11.4645      6.9224
C     -2.4581      8.8372      3.6139
C     -2.2550      7.7328      2.7972
H     -7.4126      8.2863      8.0524
C     -2.8146      7.4863      7.5799
H      1.9399      3.0948      5.3926
H     14.4157      7.9630     10.3521
H      6.8091      2.5683      1.7016
H      1.6599      4.3187      9.0841
C      3.1660      1.8049      1.1306
C     -0.0697      8.6874      1.9342
C     -0.3100      2.9934      1.8631
C      0.0939      3.9246      4.1065
C     -5.7207     10.9352      7.0889
H      2.3445     -1.1470      4.2280
H     -3.9763      7.4194      6.8356
H     16.3431     10.1392     20.3175
H      0.0774      5.8045     -0.4050
O     -0.0059      9.7676      6.3176
C     -6.7419     11.9401      7.8300
C      0.6160      7.1645      6.8279
C     14.8918      7.7970     13.9989
H     15.6621      8.4856     15.8797
C      0.5844      7.5941      2.9661
H     -4.5821     12.0629      9.6719
C      2.2837      0.6894      3.5141
C      0.4550      2.6657      7.6701
C     -2.2622     10.7039      6.8033
C     -2.3838      3.1741      4.7706
C     18.3922     11.7655     17.6709
C     -9.9788     16.7072      9.8495
C      0.7533      2.4763      0.9544
C     -1.2803      7.7879      1.5531
C     -9.1672     12.3070      8.5259
N      1.8020     -0.5543      3.5263
H      4.3399      0.8664     -0.5490
C      3.4865      1.2512     -0.3221
O     16.8423      6.0375     15.0531
C      9.6377      6.2194      0.6786
H     18.7873      9.4471     18.9464
C     -2.9286      4.4877      2.4753
C     -2.7827      7.4082      9.0500
H      1.8363      0.9793      6.7723
H      7.5244      4.6983      0.6868
H     -5.2336      8.4710      6.9588
C     -1.6389      9.6416     -0.0246
H      5.0041      6.5452      8.6697
H      1.6399      7.9360      9.2012
H     -0.9378      9.6636      4.2022
H     15.3296      8.7987     11.7721
H      3.0806      2.0019     -1.1525
H      0.3633      3.0234      9.2485
C     14.9396      7.6095     15.5356
H      5.0473      5.6132     10.2830
C     14.2693      8.4511     11.2725
C     -7.5256     10.5032     10.9243
H     15.6269     10.2122     17.3139
C      4.3905      8.1441      4.4930
C      7.9074      7.0184      2.8607
C     21.0659      9.9183     14.5557
C     19.0810      8.5903     15.1717
C      4.2646      5.9517      6.3282
C      1.6718      5.0001      2.5368
C      6.1280      6.0964      0.3270
C      5.4986      7.1350      4.0756
C      8.0539      6.6977      1.4117
C      4.1937      4.8938      7.4938
C      1.3772      5.2244      0.9213
H     -2.7642      5.7198      6.1093
C      6.2666      7.0234      5.4008
H      8.8992      5.6849     -0.1305
H      0.5901      1.4533      0.9954
C      7.1380      5.4611      1.4405
H     -0.0114      3.4458      3.1968
H     -2.0625      6.5191      9.1957
O      7.4607      6.7199      5.5490
H      9.0210      9.1795     12.2719
H      1.7006      3.2449      3.4709
H     -0.2127      9.4359      2.7243
H      3.1862      4.7410      0.3045
H      4.7330      5.0722      4.5858
C     12.2115      7.3928     11.3658
C     15.7139      6.1875     15.9606
H      0.5170      6.2747      8.9153
C     -1.5509      4.3095      4.4631
C      0.3756      6.9309      5.3333
H     -9.3569      7.8678      8.9691
H      1.7760      1.7351      5.0659
C      1.2108      5.8062      4.7363
H      2.8756     -0.1881      1.8347
H     16.2178     10.9912     15.8075
C     -5.1079      6.5081      8.9091
C     -8.5085     13.8011      8.4456
C      6.3698      7.4589      3.1215
C     -3.1878     10.0355      5.8353
C     -0.2827      6.3312      2.9187
C     -1.8288      6.6177      3.5765
H      4.1473      6.5544      0.0034
H     -2.5130      3.2106      5.8064
C    -10.8683     13.9496      9.0241
C      0.5569      5.2536      3.6212
C      4.7312      3.4237      2.4890
H      1.9496      4.1756      7.5340
H     -4.0581      8.4275      8.9540
H     -2.8095     12.5169      8.5375
H     -5.5126     11.3923      5.8050
C      1.5463      6.7175      8.8820
C     -1.7003      5.3911      5.7492
C      2.9623      0.8722      2.1215
C      1.1305      4.8342      5.8415
C      1.9457      6.3846      7.4832
C      2.1179      4.1980      0.3019
H     -1.4419      5.4354      1.3434
H      4.0388      2.4777      1.3544
H      2.8166      0.5100     -0.4235
H     -1.3349     11.0487      6.5791
H      5.2559      0.7763      3.3838
C     -0.5982      9.1273      5.1582
C     -4.0960      7.3555      9.5664
H      4.6867      4.8102      0.3232
H     21.7301     10.2581     13.6007
C     -4.3790     11.7355      7.6323
H     10.1142      5.3328      1.0167
H     -3.0558     10.7444      5.1818
H     -7.1210     14.7561      9.3187
C     -0.4431      7.8653      7.5891
C      0.6855      3.5180      5.3775
O      8.8702      5.4323      4.2486
C     -1.6942      8.2955      5.6679
C     -6.5196     14.8187      7.1271
C      5.3247      1.7130      6.3025
C      3.2557      0.4722      5.8295
H      9.0313      6.2750      4.6408
H     -6.5723     15.8192      7.2765
H      5.4879      3.9306      8.6156
H     -4.9385      9.5016      8.1728
H      0.9020      9.4459      6.5494
H     18.7771     12.4228     18.4575
H    -11.2223     11.8496      8.5284
C      1.5400      5.0127      7.0808
H     -0.2888      4.1471      1.5624
C      3.7390      5.1885      4.9711
C     -9.5929     15.7316      9.0021
H     20.2989     10.4136     15.2068
C      8.3466      7.3941     10.9761
H      3.3286      5.0974      8.0440
H     10.4809      6.3335     10.8674
H     -5.5177     14.5939      6.6010
C      3.8629      2.5514      4.5269
C     17.7591      9.7911     18.7860
C     -6.2808     12.7795      8.9361
C     -5.6458      9.4831      7.4844
C      5.5145      4.7522      8.1180
C     -6.8665     14.0888      8.5442
H     -0.4087      4.5272      8.4141
H     -2.0408      8.0026      9.3555
H      0.4759      2.8826     -0.1648
H     19.6966      9.3553     13.1129
H     -0.6127      2.1688      5.9102
C     14.4617     10.0514     13.6206
H     -9.5528     17.8198      9.7850
H     -1.9420      9.8337      3.2260
