268

C     19.6933     -4.5318     13.4265
N     -2.9430     10.2735      1.6130
C      3.8603      1.3281     20.0138
C      1.9826      2.6419      2.3154
C      7.7272      4.3742     14.7029
H      9.9723     -6.1854     15.1456
C      7.5613      2.8606     15.1626
C      3.3755      4.0761      5.4036
C     16.1289     -5.7397     19.5152
C      6.6108      1.6866     17.2526
C     -6.7322      8.4936     -4.0358
C      0.7166      8.9020      0.6254
N      0.5359      2.9252      6.2042
C      0.6940      6.4252      0.6950
O     -1.8598      2.8550      1.9037
C      3.2842      4.0140      6.8876
H      0.6308      7.2347     -1.1869
C      2.7970      6.3472      4.3932
C     17.2709     -2.6064     15.5985
H     11.2297     -9.9241     19.7612
H      4.4101      5.2148      2.2695
C     17.4603     -4.0633     15.7183
H     -8.1004      7.3767     -2.8643
H      7.2168      2.3075      8.7222
H      1.9588      3.7407     22.5548
H     12.0662     -7.4289     20.1767
H      5.8690      1.4675     22.2548
C      3.2523      2.7662     20.4913
H      7.4068      2.5220     17.3492
O      1.2381     10.3829      2.3681
C      7.7594     -1.0776     22.2358
C      6.2762      6.1193      9.4782
H      2.5342     -0.5000      6.1527
H      4.1577      5.6750      8.1850
C      6.3210      2.4619     15.9261
H      5.6986      3.4795      7.2568
H      3.4662     -1.1373     22.6007
H     14.4926     -5.4843     22.2821
C     17.0529     -1.9443     16.8968
C      9.9960     -4.2197     18.0124
O      2.1660      8.5846      4.9136
C     -1.3772      8.5114     -5.9118
C     -3.9578      7.9618     -1.3757
C     20.6996     -5.6000     12.7074
C      6.7916      6.6382     11.7534
H      5.0521      3.0822      1.6308
H     17.3250     -4.6538     13.4740
H      2.7654     -1.4662      5.2787
H     -5.4988      6.2242     -4.5522
C      7.6726      3.1743      8.9029
H      0.6786      1.3781      1.8318
C      7.4535      6.2510     10.3512
C      7.8055      5.2923     15.8085
H      8.3668      6.5895     15.0419
C     11.7400     -6.0661     18.4074
H     16.5476     -4.3632     21.0670
H     16.7805     -2.2629     14.7412
H      2.5495      5.8469      0.8625
C      9.5116     -1.5478     20.6229
C      5.9452      4.8263      9.3068
C      3.0399      7.5026      5.0042
C      5.0205      5.5795     12.9004
C     17.7896     -4.7271     14.5097
H      9.1422     -4.8130     18.4281
H      3.3073      1.2656     23.3887
H      5.1828     -2.7442     21.7537
H     18.7657     -1.0694     17.4545
C     -0.2984      3.3604      8.2917
H     18.9413     -2.7560     14.5344
C      0.1642      9.0426     -0.7460
C      1.7900      2.2217     20.8989
H     -1.9119      6.5386     -2.3955
C     -0.4170      6.2293      1.7175
H      5.7356      7.3674     11.2195
H     10.5523    -10.3677     18.1447
H     18.8371     -4.3088     12.7955
C     -2.8178      7.2022     -0.4940
O      2.5615     10.6253      0.7187
C     -5.8529      8.1641     -5.0610
C     16.7026     -4.6664     20.0744
C      3.3243      1.5345     22.3958
C      2.7348      0.9583      4.8551
H     -2.0248     10.5932      1.7505
H     -3.3858     10.8785      0.9272
H      5.8852     -0.1451     20.3028
H     16.2942     -6.0759     21.9978
C      4.0733      3.3097      3.5160
C     -2.2471      8.2398      0.6683
C     -1.6126      6.9126     -1.3508
C      5.3568      2.2706     18.1308
H     17.7873      0.3114     17.0838
C      1.8148     -0.3930     21.5255
C      4.2685     -1.2896     20.5156
C     10.9378     -7.8388     16.9806
C     16.8523     -3.3639     19.2985
C      2.7438      3.5722      2.7989
C     -7.4003      7.3681     -3.5263
H      1.4981     -0.7829     22.6451
H      2.5875      7.7145      0.6485
H      8.0061      4.1708     17.6389
H      0.5115      4.2797     -0.3271
O     18.6585     -6.4429     19.1710
C      0.8699      8.3993      4.5459
H      4.5090     -0.4897     19.7518
C     10.0346     -4.4151     16.5995
C     10.6903     -5.7200     15.9215
H      7.7616     -2.9882     21.7652
H      8.4869      2.9462     15.7300
C     -2.6886      8.5490     -5.2918
H      2.5115      3.4794      5.2618
H      4.9081      4.0951     13.7404
H      0.0988      3.0076      9.2484
C      3.0191      1.4478      2.0627
C     -0.2388      8.5654      1.9855
O      4.1620      4.4815     13.2865
O      7.0911      3.8532     11.3306
C     -0.5208      3.1815      1.9500
C      0.2113      3.9169      4.0461
C     -6.1891     10.5705     -5.6696
H     -0.9989      9.8983     -8.7339
H     -0.2729      7.7420     -2.6068
O      0.1175     10.0973     -7.0371
C      5.6493     -1.8221     21.0926
C     13.6686     -5.7373     19.7380
C      1.5638      7.6308      0.8959
H      2.7490      8.3518      2.5661
C      0.7005      7.7147      3.1009
H      8.7723     -0.2146     22.4409
C      2.3219     -0.0503      3.8169
C      0.5481      2.6616      7.4498
C     10.1723     -2.0838     19.5588
C     10.6100     -9.7792     18.9913
C     17.7537     -0.7475     17.2994
C      3.0211      3.9869     22.7786
C      0.6519      2.4120      1.7827
C     -1.3136      7.4943      1.6839
C      3.4191     -0.8167     21.4704
N      2.4256     -1.5582      4.3240
C      3.3338      1.4184      0.5235
O      4.1879      5.9845      2.5214
C     -3.1363      5.9965      0.3817
H     -6.4051      9.1373     -6.9292
C     10.0232     -8.4038     16.0783
C     -2.8276      8.5425     -3.8911
H      7.6952      3.6665      7.8699
H      1.6880      0.8869      6.6097
H     -5.0122      9.3909     -6.6443
C     -3.3149      9.1023      1.0735
H     -7.9825      7.1157     -4.5232
H     14.5290     -7.2147     22.0140
H     -0.7775      9.4135      2.4796
H      1.0848      9.8346     -2.4118
H      2.9954      0.4984      0.0023
H     -1.1554      2.6607      8.1906
C      1.9256      7.4844      2.3998
H      3.0105      2.1740      0.0141
C      1.0111     10.0126     -1.3117
H      8.2601      5.5545     10.6773
H      1.2332     -1.7963      4.3935
C     17.5968     -4.5241     17.0993
C      7.7130      6.7576     15.8147
C     20.0332     -3.0147     14.1370
C     19.0874     -5.1305     14.4493
C     17.1784     -6.9359     19.2073
C      2.0097      4.9910      2.7278
C      6.4593      5.5756     12.6857
C     18.5405     -5.7347     16.9293
C     -4.3996      6.1475      0.2878
H      1.5429     10.8605     -0.9347
C      4.4118      5.0071      7.4065
C      1.7016      5.2791      1.2258
H     -3.5852      8.8956     -5.9128
C     19.3612     -5.8812     18.1410
H      1.9625      2.0405      4.8765
H     10.2345     -8.3357     14.9653
C      7.4023      5.0961     13.4605
H     -0.6580      3.5559      3.3858
O     20.6030     -5.7852     18.2970
H     -4.3242      9.0481     -1.3989
H     20.7999     -2.8355     14.8630
H      1.1527      3.1809      3.9561
H      1.8156      4.7649     -0.6990
H      4.5699      4.9513      4.0889
C     -0.2486      7.8260     -1.4898
H      6.4718      4.9706      7.0533
C      2.7510      6.2789      2.9261
C     10.7761     -8.1835     18.5737
C     13.3743     -5.8113     18.3427
H     -7.4017      9.0924     -4.6190
H      3.5785      1.6958      4.7770
C      1.1450      5.9482      4.9479
H      1.3385     -0.6445     20.6961
H      2.0563     -0.7208      1.5954
H      0.3138     10.0970      2.7624
H     -2.1060      8.1120     -3.3101
C     -4.7584      7.0438     -4.9340
C      4.2054      0.6430     21.5087
C      6.4125      7.2997     15.8882
C      9.7351     -2.7709     18.2699
C     -0.1280      6.3577      3.1918
C     11.4313     -6.5452     16.8769
H     10.3096     -1.0765     21.2723
H      2.0913      3.4771      0.0929
H      4.6292      6.0150     12.0942
H      9.7833     -9.9509     19.5788
C      1.9268      1.1075     21.6092
H     11.1490     -1.3288     19.6518
C      0.7039      5.2251      3.7713
C      5.2489      3.2911      2.6560
H      1.9446      4.6254      8.2567
H     17.7319     -4.9164     20.2056
C      6.9417      3.9113      9.9588
H     -6.1421     10.8328     -6.8736
C     15.1171     -6.2889     21.7196
C     11.3745     -7.2368     19.2147
C      2.4104      0.2383      2.4121
C      0.9773      4.9039      6.0974
C     14.8302     -6.4352     20.2274
C      1.4561      4.2687      0.2309
H     -1.0231      5.3659      1.5933
H      3.8625      1.6583      2.6654
H     -3.3735      9.4607     -3.8131
H      4.3474      1.2902      0.1934
H     -3.9691      6.5204     -5.6461
H      8.2285      2.8113      9.5102
H     10.3446     -2.4387     17.5776
H      6.9380      0.6100     16.9327
C     -0.3177      9.1887     -8.0679
C     -3.9139      7.6746     -3.8003
H      4.6485      6.1997     13.7740
H      9.0225     -4.6321     16.3296
C      8.0823     -2.0843     21.1420
H      9.6132     -9.3735     16.5355
H      8.5847     -2.7442     18.0039
C     -0.1349      7.8044     -5.3153
C      0.2141      4.0269      5.5356
O      8.1184      4.9332     17.2683
C     -1.5323      8.4114     -7.4044
C      6.1825      0.9747     20.0393
C      5.1559      1.8186     19.3898
C      2.6514      0.5237      6.2102
H      7.1749      1.2212     19.7086
H      5.0004      2.9229     21.8254
H      7.5941     -0.9760     23.3358
H     -0.6172     10.6319     -6.8354
H     17.5869     -0.7908     18.3371
H      0.0438      7.4424     -4.2113
C      2.0080      4.9868      7.0854
H     -0.3313      4.2926      2.0273
C      3.7571      5.4752      5.0119
C      3.8382      2.8625     21.9184
H     20.0433     -2.5274     13.2459
H      0.2388      5.8977     -0.2445
C     -4.2810      7.1349     -2.5214
H      3.5301      4.4757     23.8629
H     -1.3091      6.3688     -0.3378
C      4.1316      2.9789      4.8102
C     17.2727     -3.5151     18.0314
C      6.2814     -0.6557     21.8212
C     -5.8088      9.2682     -5.9890
C      5.6763      4.4386      7.8795
C      5.8360      0.7019     21.4798
H     -0.2980      4.4556      7.8260
H     -4.0362      9.5583      0.2925
H     -2.9847      4.8588      0.6935
C      1.4319     10.0534      1.0438
H      3.1257      5.0928     22.3149
H     10.3941     -3.9991     15.6694
