258

C     19.9712      9.0284     13.9537
C      3.9147      1.5503      7.1035
C      2.0507      2.9977      1.4942
C      7.2579      4.9548      2.5274
H     -3.1958      3.3723      2.8897
C      7.2504      3.5376      2.8593
C      3.4506      3.8802      5.5890
C     -6.2111      9.8119     10.4285
C     16.0920      7.3872     19.4347
C      5.8511      1.4708      4.0067
C     -6.9809      9.0898      9.4729
C     13.7609      8.7034     13.7912
N     -0.4075      2.7158      6.3297
C      0.5141      5.7084      0.5649
O     -1.8161      2.6946      1.7608
C      3.0583      3.8086      6.9563
C     15.3399      6.4290     17.3721
C     16.4819     10.5773     16.8542
H     -3.6268      3.5291      4.9410
H     17.1596      5.2290     15.8919
H     -7.2932     10.0295     12.3109
C     17.0624      9.1330     16.3591
H     -8.4713      8.3908     10.8621
H     -5.8090     10.6175      9.6905
H      8.0241      3.1950      3.6692
H     12.5557      7.0502     11.0364
H     -0.6865      5.2766      6.3416
C      2.7842      2.5592      7.7162
H     -2.8450     10.3112     -0.0732
H      7.0197      1.0188      4.1692
O     15.5189     10.2085     14.6748
C     -4.6225     12.6560      8.8493
C      6.7409      6.2370      9.4531
H      2.2288      0.0078      6.4646
H      2.7160      6.3449      9.3691
C      6.2857      2.4627      2.9128
H      6.5813      4.9713      7.9109
H     -5.9008      8.9627     10.7879
H     -7.8140     10.2433      8.7989
C     17.5454     10.8350     17.8341
C     -2.7536      8.7343      4.7969
O      1.9257      8.6057      4.9987
C     -1.6741      8.2015      7.1388
C      8.5870      8.0048     12.1537
C     20.3235      7.7113     12.9435
C      6.2303      7.0209     -0.9631
H      5.0496      3.9682      1.7495
H     17.8581      9.7737     14.2959
H      1.7015     -0.5734      3.0014
H     -4.8874      5.7051      7.6616
H     15.5499     10.4351     15.5647
C      7.0887      6.4932     10.8281
C      8.2429      5.6184      3.3452
H      8.5774      7.3872      2.3821
C     -1.1976      6.9306      5.1992
H     15.7152      9.0148     21.1636
H      4.5123      0.8944      2.1554
H     -6.6785     11.4529     11.7542
H     14.9672      7.0686     13.5090
C     -2.8052     11.4644      7.8201
C      5.5463      5.4327      9.4345
C     15.9864      7.6082     17.9400
C      4.5360      6.0988      0.4879
C     17.7495      9.1867     15.2224
H     -3.7515      8.1204      4.9481
H      8.5296      7.6491      4.3709
H     -9.1104     14.3750     10.3501
H     17.6174     11.8059     16.5470
C      0.0981      3.6283      8.6777
C     13.0886      8.5061     12.3941
C      1.5217      1.7367      7.7581
H     -2.0028      6.5342      9.6144
C     -0.4848      6.3676      1.4828
H      5.8218      8.1332     -0.9393
H     -2.3874      2.4979      4.6289
H     -7.9803     10.7781     10.8023
C      9.7581      7.4581     12.8743
O     14.8067     11.3335     13.0460
C     -6.3664      8.6671      8.0791
C     16.3004      8.7021     20.1238
C     -9.5299     14.5216      9.4556
C      2.7396      1.5291      4.7855
H     -1.0679     10.1445     -0.3848
H     -6.8759     11.9691      6.5374
H     -9.3396     16.8021     10.6035
C      3.5127      3.3258      3.2182
H     -4.0298     10.1677      5.1186
C     -2.2539      8.6843      0.7774
C     10.7958      7.1676     11.8430
H     -2.0847      9.8456      7.0663
C      5.1541      1.9140      5.1562
H      4.1244      0.3006      5.9241
H     -4.0413     13.6867      8.6968
C    -10.2557     12.2270      8.2988
C     -7.6866     11.1753      8.2337
C     -2.3968      5.3498      3.4374
C     17.0054      9.5569     19.5052
C      2.1513      3.3638      2.8489
C     -7.9818      8.1818      9.8806
H     16.0272      8.1911     13.9964
H     -3.3545      4.4386      1.7083
H     13.6679     11.3635     12.7219
H      1.7879      3.8644     -0.3549
O      6.0351      6.4940      6.6870
C      0.4532      8.2341      4.5197
C     -2.4433      8.8413      3.2951
C     -1.9848      7.6606      2.5614
H     -7.0860      8.2038      7.7626
C     -2.7274      7.5923      7.6031
H      2.0866      4.3227      5.3253
H     14.0179      8.9127     10.4909
H      6.2210      1.7923      2.0197
H      1.0846      4.1544      8.7455
C      3.2196      1.8670      1.1153
C     -0.0525      8.6699      2.1197
C     -0.5341      3.1164      1.7289
C     -0.4409      4.0579      4.0915
C     -5.0779     10.7525      7.4579
H     -3.7159      7.3761      7.3580
H     16.3980     10.6772     19.2843
H      1.0355      6.1467     -0.3988
O     -0.0136      9.4955      6.3590
C     -6.4272     11.6455      7.5426
C      0.5275      7.1341      7.0336
C     15.0283      8.0053     14.0572
H     15.1626      8.3050     15.9724
C      0.5346      7.6929      3.0765
H     -4.1219     12.8347      9.9448
C      2.5744      0.7328      3.6397
C      0.0854      2.3254      7.9934
C     -2.3148     10.7543      6.5447
C     -2.6673      3.2799      5.1848
C     17.9364     12.1008     17.6689
C     -9.8419     16.9513      9.6488
C      0.7314      2.4622      1.2285
C     -1.1731      7.8382      1.4299
C     -8.9693     12.3150      8.0806
N      1.6495     -0.1905      3.9449
H      4.1396      1.0912     -0.7419
C      3.1425      1.3320     -0.2711
O     16.8912      6.0862     15.6190
C      9.1941      6.5735      0.9641
H     18.9973      9.4982     19.1545
H     -0.5269      1.4970      8.2881
C     -2.5911      4.3173      2.5831
C     -2.6153      7.2169      9.0715
H      1.3090      1.4130      6.6880
H      7.0237      4.8790     -0.0411
H     -4.4592      8.7301      7.0124
C     -2.1486      9.6415     -0.1111
H      5.0613      5.1855     10.4595
H      2.3152      7.9688      8.6488
H     -0.6969     10.2133      4.7984
H     15.1017      9.0577     11.7251
H      2.7380      2.2521     -0.7243
H     -0.4466      3.2999      9.6436
C     14.7343      7.4322     15.4342
C     14.0128      9.0681     11.4952
C     -7.0972     10.5016     11.3334
H     15.5700     10.1632     17.3131
C      4.5903      8.2052      4.5114
C      8.0463      7.1309      3.3262
C     21.3178      9.3920     14.5526
C     19.0746      8.3109     15.0334
C      4.3859      5.9163      6.4649
C      1.5965      4.8255      2.7926
C      5.8140      6.2501      0.2061
C      5.6204      7.1366      4.3973
C      7.8871      6.7094      1.0110
C      4.2482      4.8456      7.5112
C      1.4594      5.0403      1.3398
H     -2.4433      5.6687      6.4526
C      6.6136      6.7285      5.5685
H      9.8827      5.7771      0.9981
H      0.9658      1.4133      1.7200
C      6.9845      5.5801      0.9824
H     -0.5938      3.4552      3.0514
O      7.8326      6.6037      5.5754
H      8.7696      9.2402     11.7761
H      1.5261      2.6866      3.4314
H     -0.1813      9.6643      2.5797
H      3.3319      4.2961      0.0099
H      4.8841      5.1226      4.1691
C     12.1183      7.5631     11.8194
C     15.6138      6.0136     15.9975
H      1.3156      6.8567      9.5058
C     -1.7450      4.4478      4.7755
C      0.1249      6.9727      5.3173
H     -8.6536      8.6170      9.1200
H      1.6255      2.1155      5.1768
C      1.1499      5.9432      4.7165
H     16.2425     11.4745     16.1789
H     -0.3557      7.0369      8.7263
C     -4.8369      6.0001      8.8395
C     -8.5274     13.5751      8.3996
C      6.6263      7.5255      3.2121
C     -2.8156     10.2036      5.2094
C     -0.2587      6.3096      2.9457
C     -1.6345      6.5972      3.5428
H      4.1328      6.9943     -0.3320
C    -10.8893     13.5699      8.8370
C      0.5292      5.2337      3.5752
C      4.8033      3.4608      2.6339
H      1.0495      4.8832      7.7690
H     -2.2895     12.2229      8.1891
H     -4.9314     11.1064      6.5246
C      2.0942      7.0152      8.7953
C     -1.6368      5.6150      5.8218
C      3.4072      0.9777      2.2473
C      1.3991      4.7866      5.7550
C      1.8608      6.5466      7.5289
C      2.3438      4.2119      0.5501
H     -1.3373      5.6175      1.4139
H      2.4228      0.3951     -0.1394
H     -1.4567     11.2459      6.4877
H      5.1951      0.8536      3.5306
C     -0.6180      9.2423      5.3236
C     -4.0331      6.8795      9.4344
H      4.1512      5.2597      1.1545
H     21.7559     10.1865     14.1292
C     -4.1498     11.6347      8.1090
H     -2.6738     10.6614      4.3729
H     -7.1674     14.0835      9.4982
C     -0.5110      7.3577      7.7012
C      0.0532      3.6524      5.5017
O      8.5596      4.7255      4.1798
C     -1.6226      8.3303      5.5215
C     -6.5661     14.2182      7.2811
C      5.2846      2.0655      6.5317
C      3.1984      0.7124      5.9470
H      9.4826      4.7129      4.3574
H     -5.7243     15.1358      7.5063
H      5.3668      3.5505      8.3140
H     -4.5387      8.8437      8.5216
H     19.1311     11.9998     17.4132
H    -10.9658     11.2587      8.0854
C      1.9131      5.0421      7.0948
H     -0.6252      4.1435      1.1688
C      4.1121      5.0822      5.2383
C     -9.6620     15.7848      8.8877
H     21.8092      8.7611     15.3409
C      8.3279      7.3308     10.6555
H      4.1692      6.1064      8.0619
H     -5.7763     13.6560      6.6488
C      3.6581      2.6873      4.6170
C     17.8597      9.4399     18.4965
C     -6.1775     12.6336      8.8615
C     -5.1120      9.2826      7.5861
C      5.6329      4.6162      8.2496
C     -7.1383     13.8728      8.5135
H     -0.6423      4.2081      8.3324
H      0.5011      2.4022      0.2350
H     19.8102      9.7888     13.2457
H      6.9740      5.2996     11.0406
H     -1.0159      1.9989      5.8232
C     14.2040     10.3014     13.9710
H    -10.1209     18.0882      9.5976
H     -2.5340     10.0939      2.8352
