267

C     19.6243      8.5218     13.6199
N     -2.2240     10.4912      1.7434
C      3.9933      1.3266      7.0372
C      2.0941      2.5165      2.6062
C      7.3225      4.9108      2.0016
H     -3.3099      6.4802      3.3078
C      7.3576      3.5000      2.5629
C      3.4057      4.0540      5.2829
C     16.4971      7.4353     19.4919
C      5.9470      1.6550      4.0004
C     -6.8793      8.2633      8.7198
C     13.4616      8.3859     13.7345
N      0.1899      2.9390      6.4076
C      0.6126      5.7561      0.9093
O     -1.7186      2.7950      1.6996
C      3.3209      4.0992      6.8079
H     13.0314      6.5161     11.3004
C     15.6557      6.4739     17.4690
C     16.5779     10.5724     15.8016
H     -2.9188      4.0638      7.2381
H     17.0928      5.2867     15.2323
C     16.8331      9.0783     15.9812
H     -8.6795      7.1548     10.1690
H      1.9427      3.9216      9.4601
H     -0.5589      5.5994      7.2246
H     -7.0390     14.6178      8.8008
C      3.0353      2.8404      7.6319
H      7.0723      1.3974      4.4783
O     14.1490     10.1985     15.5568
C     -5.3584     12.0643      9.2711
C      6.1610      5.8356      9.6302
H      3.2934     -0.3392      6.2121
H      4.2451      5.5044      8.1952
C      6.3192      2.9204      3.0303
H     -9.0631     11.7249      9.6142
H      1.4797      7.4753      9.0896
C     17.3176     11.1178     16.9762
C     -2.6283      8.5471      5.2103
O      2.1407      8.7638      4.7513
C     -1.3020      8.3174      7.0891
C      8.8865      7.9659     11.7836
C     20.5564      7.7451     12.8390
C      6.4572      6.8827     -0.9943
H      5.3267      4.0375      1.2728
H     17.3343      9.4557     13.7447
H      1.4138     -1.0394      5.8157
H     -5.4279      6.3823      8.8474
C      7.5485      2.5593      8.4622
H      0.5022      1.1120      2.4385
C      7.1738      6.1692     10.8044
C      7.8349      5.8149      2.8796
H      8.1762      7.6004      1.8736
C     -0.8533      6.8515      5.3724
H     16.5886      9.0143     21.1879
H     16.0272     11.5846     15.4856
H      2.6574      5.2045      0.7196
C     -3.3482     11.4692      7.5903
C      6.0718      4.6825      8.8195
C     16.3195      7.8134     17.9127
C      4.9818      4.8913     -0.8633
C     17.6512      8.8869     14.8497
H     -3.2057      7.7747      5.5748
H      8.1101      7.6963      3.7701
H      3.5835      1.2760     10.3282
H     18.9917     12.1394     17.2427
C     -0.4763      3.7036      8.4722
H     20.8213     10.5628     14.5683
C     13.2040      8.3799     12.2320
C      1.6960      2.2092      8.0740
H     10.9160      6.5609     10.8465
C     -0.8111      6.0436      1.8642
H      5.9957      7.7803     -1.7170
H     -2.1348      2.7152      6.5289
H     18.5923      9.0284     13.0225
C      9.9118      7.2151     12.7317
O     15.4062     10.0784     13.7177
C     -5.8771      8.2465      7.9062
C     17.0318      8.7194     20.1717
C      3.5367      1.6260      9.3670
C      2.4409      1.0704      4.9737
H     -1.4940     10.6342      0.9259
H     -6.9169     12.8759      5.9867
H      3.2072      7.7963      8.5870
C      4.1113      3.6871      3.0525
C     -2.5153      8.0500      0.9116
C     11.0114      6.7542     11.9478
H      8.4681      3.2904      8.3372
C      4.9949      2.1396      4.8846
H     17.5932     12.6060     16.0178
C    -10.7450     12.6959      8.6219
C     -8.5411     11.3804      7.5306
C     -2.0274      5.0615      4.3260
C     16.9035      9.9852     19.5157
C      2.8071      3.6626      2.6942
C     -7.7439      7.1751      9.2738
H    -11.5135     12.0776      8.1530
H     14.8922      6.8651     13.2026
H      0.4914      2.9768     -0.3386
O      5.8527      6.6264      6.3816
C      0.7824      8.4629      4.3877
H     -8.3820     12.2141      6.9735
C     -2.7875      8.5291      3.8230
C     -2.6161      7.2369      2.9946
H     -4.6516     10.4103      8.8294
C     -2.4847      8.5466      7.8266
H      2.5103      4.1117      4.6324
H      3.4633      3.8478      0.2722
H      0.0993      4.3730      9.3176
C      3.0015      1.2667      2.4774
C     -0.3579      8.4283      2.0477
O      4.0434      3.7080     -0.5118
O      7.7562      3.5650     10.5302
C     -0.2064      3.0382      1.7619
C      0.1708      3.7409      4.1917
C     -6.2297     10.8286      7.5251
H     15.7987     10.2994     18.9260
H     -0.5063     10.3312      4.3165
H     12.1585      7.9117     10.6982
O      0.4929      9.7868      6.2063
C     -7.5124     11.0303      8.4770
C      0.9903      7.5404      6.6251
C     14.2739      7.1725     13.9537
H     15.5402      8.3878     15.6984
C      0.5435      7.7910      3.0529
H     -4.8725     13.1316      9.3095
C      2.0878     -0.1319      4.1947
C      0.3049      2.7279      7.7255
C     -2.5834     10.7599      6.6773
C     -2.3844      3.7110      6.3772
C     18.0693     12.2278     16.9529
C      3.0250      3.9839      9.8487
C      0.6716      2.1290      2.4512
C     -1.5355      7.4305      1.8210
C     -9.3007     12.2010      8.6648
N      1.3738     -1.0955      4.8764
C      3.6165      1.3126      1.0549
O     16.9499      6.1377     15.3469
C      9.0303      6.2260      0.5822
H     -6.7060      9.2276      6.2430
C     -2.6127      4.2582      3.2425
C     -2.7113      8.4044      9.3260
H      7.2029      3.0274      7.5157
H      1.9765      0.9258      6.8012
H      7.5358      3.7589     11.3810
H     -4.8661      9.4607      6.6479
C     -3.0003      9.3306      1.0147
H     -8.1211      6.5332      8.4901
H      2.9096      6.2637      9.1775
H     -0.8471      9.4003      2.0528
H     13.9867      9.6665     10.4563
H      4.3396      0.5344      0.8414
H     -1.9500      2.7305      0.8082
H     -1.2397      3.2737      8.9702
C     15.0285      7.4444     15.3643
H      2.8819      1.2111      0.2928
C     14.1653      9.0375     11.5001
H      7.6011      5.4960     11.5414
H      1.1770     -2.0975      4.6312
C      4.3263      8.6916      4.4611
C      7.7651      7.1727      2.8052
C     20.1618      9.8865     13.9050
C     18.6822      7.8383     14.6810
C      4.5221      6.0374      6.3683
C      1.9579      4.9290      2.7693
C      5.7532      5.8352      0.0562
C      5.6486      7.4082      4.2829
C      7.8375      6.5987      0.7616
H     15.2505      9.8410     11.8465
C      4.2792      5.0090      7.2794
C      1.6067      4.8085      0.6342
H     -3.5295      8.8800      7.4884
C      6.4489      7.2129      5.5021
H      1.4258      1.2906      5.0231
H     -3.2104      4.8540      2.5181
C      6.7309      5.4964      0.9658
H     -0.7335      4.0458      4.3556
O      7.6138      7.6322      5.6494
H      9.2970      8.9774     11.6732
H     19.8478     10.4256     12.9568
H     -0.0340      2.7440      3.7490
H      1.9990      3.6972     -0.9222
H      4.7215      5.4067      4.4393
C     12.2384      7.3730     11.5108
H      6.2807      5.0700      6.8047
C     15.6238      6.1710     15.9658
C     -1.6445      4.7138      5.6548
C      0.5409      7.2335      5.3549
H     -7.2061      9.1922      9.0267
H      3.1695      1.7878      4.6855
C      1.2452      5.9205      4.8515
H      1.3550     -0.0528      1.8772
H     13.2836     10.1006     16.0946
H     -2.0757      8.2045     10.0642
C     -4.8553      7.2017      8.3546
C      4.2920      0.6255      8.3197
C      6.3872      7.4052      3.0506
C     -2.7638      9.9754      5.4141
C     -0.1427      6.3237      3.1018
C     -1.3646      6.3702      4.0064
H     -2.6362     12.2509      8.2884
H      2.2934      2.9846      0.2294
H      5.8928      4.6916     -1.0242
H     -3.3742      3.4216      5.7088
C      2.2001      1.1220      8.9127
H     -1.7095     11.1590      6.3423
C      0.7777      5.0420      3.6084
C      5.3274      3.6914      2.3658
H      1.2698      4.8957      7.7548
H     18.2153      8.7638     20.4863
C      6.9012      3.5534      9.4998
H     -2.5080     11.5116      1.6674
H     -6.4346     11.3773      6.6511
C      2.5086      7.0700      8.6811
C     -1.0551      5.8912      6.4047
C      2.1604      0.0766      2.7945
C      1.0108      5.0522      5.8583
C      2.1889      6.8218      7.2030
C      1.4475      3.5204     -0.0476
H     -1.5071      5.1949      1.6893
H      4.0546      1.4828      2.9828
H     -3.0965      9.3511      9.9515
H      4.0713      2.1847      1.1332
H     -3.7622      6.9711      7.8183
H      7.7495      1.6248      9.2338
H     -1.8225     10.4801      4.6569
H      5.4395      0.8421      3.5097
C     -0.3611      9.2846      5.0700
C     -4.1050      7.6891      9.5139
H      4.7268      5.4622     -1.8888
H     -3.5845      9.2994      3.6850
C     -4.7649     11.1413      8.1401
H     -3.1648      3.5107      3.9214
H     -3.6538     10.5656      5.1829
C      0.1078      8.1052      7.4808
C      0.5630      3.7038      5.6316
O      8.3128      5.1396      3.9129
C     -1.3325      8.3583      5.5997
C     -6.7216     13.5933      6.9206
C      5.2453      1.8243      6.3204
C      2.9716      0.6420      6.1634
H     -5.7629     13.5970      6.8751
H      4.7137      2.8340      8.6562
H     -4.5717     12.2697     10.0989
H      1.1208      9.2433      5.6009
H     17.5360     13.2793     17.3942
H      0.2884      8.8920      8.1672
C      1.9341      5.3089      7.0492
H      0.0108      4.1006      1.6280
C      3.8786      5.5263      5.0057
C      3.8246      2.8442      8.8657
H     19.1810     10.2867     14.1233
C      8.5438      6.9337     10.6788
H      3.2011      3.7589     11.1975
H     11.4346      5.7445     12.4685
C      4.2674      3.1877      4.4701
C     17.5591      9.8849     18.1490
C     -6.7792     12.3866      9.1251
C     -5.9208      9.4137      7.0510
C      5.6738      4.3598      7.4811
C     -7.1177     13.5830      8.3398
H     -1.2922      4.1935      8.0744
H     -3.7037      9.7686      0.3651
H     -7.3186     12.3027     10.0755
H      9.4943      5.1605      0.7656
C     14.3455      9.7199     14.1891
H      3.8358      4.9959      9.9921
H     -2.2562      9.5569      3.3639
267

C     19.7250      8.8415     13.3906
N     -2.3846     10.4326      1.8729
C      3.7204      1.6945      6.9693
C      2.1708      2.6382      2.0750
C      7.6331      4.7874      1.7812
H     -3.5102      6.6671      3.0710
C      7.6197      3.3572      2.2290
C      3.4261      4.2170      5.4071
C     16.4093      7.3601     19.3707
C      6.3122      1.8421      3.8878
C     -6.8133      8.2762      8.7100
C     13.4581      8.4781     13.8051
N      0.2092      2.5937      6.2764
C      0.6805      6.1562      0.8143
O     -1.3742      2.7618      1.1266
C      3.1844      4.1243      6.8764
H     13.3457      6.8414     10.8575
C     15.6680      6.3442     17.3692
C     16.6538     10.6585     16.0866
H     -3.1918      3.1729      6.8273
H     17.1515      5.5632     14.5577
C     16.9808      9.2709     15.8717
H     -7.7542      8.0126     10.6477
H    -10.6919     17.5417      9.6283
H     -1.0465      5.8342      7.5264
H     -7.0565     14.5575      9.4250
C      3.0094      2.8483      7.5827
H      7.3653      1.4660      4.5005
O     13.8255     10.5092     15.2603
C     -5.5125     11.7705      9.3997
C      6.1208      6.0895      9.6692
H      3.7427      0.2336      5.4939
H      4.1322      5.4547      8.6244
C      6.5292      2.9426      2.9094
H      5.4636      2.8090      7.0013
H     -9.1651     12.0558      9.0746
H      1.8336      7.7926      9.2609
C     17.4691     10.8458     17.3572
C     -2.9338      8.7077      5.2575
O      2.1818      8.6928      4.3892
C     -1.2905      8.5835      7.2525
C      8.8190      7.9445     11.7706
C     20.5155      7.5872     12.8097
C      6.3923      6.7973     -0.9549
H      5.3287      3.9849      1.3904
H     17.5009      9.4748     13.8917
H      2.2796     -1.5752      5.5364
H     -5.5261      6.0655      7.7091
C      7.7060      2.9824      8.7087
H      0.3288      1.2182      1.4061
C      7.2434      6.3117     10.6254
C      7.9782      5.6723      2.8215
H      8.4788      7.4589      2.0475
C     -0.8180      6.9367      5.5980
H     16.0788      9.2491     21.1150
H     16.6343     11.5556     15.4591
H      2.6677      5.6350      0.5474
C     -3.4798     11.0276      8.0106
C      6.1469      4.8478      8.8555
C     16.1698      7.9884     17.6895
C      5.2116      4.9910     -0.7458
C     17.5690      8.9367     14.6331
H     -3.5342      7.9311      5.6044
H      8.0957      7.6908      3.8152
H     -9.7486     14.0199     10.4566
H     -7.7843     10.4904      8.7959
H     19.0569     11.3197     17.3670
C     -0.6290      3.3889      8.4195
H     21.0186     10.7744     14.0511
C     13.2323      8.6394     12.1989
C      1.5495      2.0969      7.9175
H     12.0607      5.8226     11.8766
C     -0.6841      6.2048      1.6741
H     18.7520      8.8269     12.4678
C     10.1964      7.3382     12.6449
O     15.4599     10.0491     13.8764
C     -5.8823      8.2146      7.7397
C     16.6560      8.7860     20.2690
C     -9.6854     14.2547      9.3855
C      2.2861      1.2356      4.9227
H     -2.9876     11.2958      2.0677
H     -6.1080     13.1513      6.8794
H      2.9438      6.6099      9.2927
C      4.1744      3.5360      3.1961
C     -2.5170      8.2512      0.9419
C     11.6321      6.9636     12.0851
C      5.2471      2.2709      4.9189
H     18.0194     12.9134     16.9674
C    -11.0118     12.5151      8.3696
C     -8.8074     11.2894      7.2427
C     -2.0482      5.1450      4.3919
C     16.6500      9.9816     19.2796
C      2.7004      3.6677      2.8150
C     -7.6042      7.4942      9.6341
H    -11.4832     11.7355      8.9076
H     14.8581      7.4210     13.0847
H      8.1513      5.5198      4.8401
H      1.4924      2.9377      0.0182
O      5.7986      6.6630      6.4275
C      0.6773      8.2127      4.4909
H     -8.4019     11.7546      6.4053
C     -2.6000      8.4827      3.7346
C     -2.4223      7.1339      3.1340
H     -4.8090      9.7764      9.0739
H      8.4971      3.5126      2.7233
C     -2.4458      8.6432      7.9921
H      2.5662      3.5165      5.2586
H      3.9340      4.0359      0.8994
H     -0.6536      2.5086      9.3021
C      2.9669      1.2323      2.0486
C     -0.4321      8.4778      2.2581
O      4.1086      4.1239     -0.1703
O      7.5034      3.9207     10.8259
C     -0.0425      3.0178      1.5282
C      0.1567      3.9220      4.0444
C     -5.9790     10.7283      7.2007
H     15.7496      9.8599     18.8164
H     -0.7450     10.1828      4.2830
H     12.1918      8.1113     10.3032
O      0.3154     10.1795      5.8931
C     -7.3476     10.9392      8.0586
C      0.9440      7.4534      6.8775
C     14.4126      7.4024     14.0127
H     15.5806      8.2256     15.4419
C      0.6169      7.7351      3.0773
H     -4.8355     12.5288      9.4464
C      2.2690     -0.1322      3.8820
C      0.2925      2.6628      7.6148
C     -3.0309     11.0193      6.6618
C     -2.3977      3.4456      6.1032
C     18.1184     12.0560     17.6062
C     -9.9769     16.8900     10.0609
C      0.7721      2.0491      1.8859
C     -1.8378      7.3975      1.8829
C     -9.5394     12.3498      8.1719
N      1.9737     -1.2510      4.4953
C      3.5168      1.5043      0.6531
O     17.1205      6.1167     15.3444
C      9.3631      6.0953      0.2568
H     18.6304      9.2160     18.9438
C     -2.4762      4.1803      3.5610
C     -3.0534      8.3272      9.2550
H      7.5934      2.7727      7.7819
H      2.4486      0.0786      6.5260
H      8.6759      4.1701     10.7662
H     -5.8122      8.9011      5.8666
C     -2.7415      9.5980      0.9402
H     -8.3925      6.9536      8.9987
H      1.2775      6.2446      8.7333
H     -0.9402      9.3977      2.5803
H     14.0904      8.9317     10.4510
H      4.3804      0.9558      0.1845
H     -1.6264      3.7258      8.1398
C     14.8766      7.4043     15.4131
H      3.1896      2.1309     -0.1081
C     14.2825      9.3441     11.4864
H      7.9416      5.3705     10.9596
H      2.6861     -1.9249      4.1367
C      4.4595      8.5996      4.2116
C      7.8619      7.1527      3.0313
C     20.1508     10.2469     13.8724
C     18.9158      8.1293     14.4759
C      4.3749      6.1553      6.2562
C      1.9060      4.9764      2.6478
C      5.9196      5.9143     -0.0428
C      5.6648      7.8727      3.9868
C      8.0778      6.3514      0.5129
H     15.0763      9.9967     11.7569
C      4.3910      5.1051      7.4123
C      1.7651      5.0825      0.9291
H     -3.3701      8.7927      7.4044
C      6.3589      7.1500      5.2707
H      1.4580      1.6904      5.3457
H     -2.4754      4.5931      2.4888
C      7.1245      5.3916      0.6021
O      7.5831      6.9904      5.3548
H      8.6373      9.0636     11.0545
H     19.5579     10.7295     13.0038
H      0.6761      2.9161      4.0445
H      0.1580      4.0372     -0.2937
H      5.0186      5.5072      4.2340
C     12.5170      7.7052     11.2822
H      6.5913      4.0021      7.0864
C     15.7431      6.1958     15.9502
C     -2.0328      4.9325      5.9232
C      0.6881      7.1374      5.5675
H     -7.2151      9.3501      8.5976
H      3.1658      1.8636      4.4311
C      1.4118      5.8547      5.0530
H      2.1359     -0.9849      2.2462
H     14.4367     10.4453     16.0235
H     -2.1613      7.6653     10.0244
C     -4.8834      7.1498      7.8686
C     -8.8845     13.7050      8.2085
C      6.4813      7.5280      2.7203
C     -2.9461     10.5325      5.3760
C     -0.1781      6.2871      3.1179
C     -1.2551      6.3625      4.2279
H     -3.1927     11.5904      9.0841
H      1.9147      4.6968     -0.9529
H      5.7559      4.7061     -1.5585
H     -2.5784      2.8652      5.2395
C    -11.0642     13.8341      8.8477
H     -2.0924     10.9304      6.8778
C      0.6878      5.3992      3.7844
C      5.2921      3.4125      2.3731
H      1.3172      4.6766      8.0030
H     17.7733      8.6200     20.2358
C      7.1244      3.9544      9.5428
H     -2.5412     10.1278      2.8360
H     -6.1188     11.3366      6.3821
C      2.1422      6.9031      8.7738
C     -1.2362      5.8075      6.5558
C      2.0523      0.0971      2.5009
C      1.0120      4.9462      6.0174
C      2.2235      6.9147      7.3035
C      1.3599      3.9904     -0.2598
H     -1.2813      5.3462      1.4187
H      3.9353      1.2178      2.5969
H     -3.2533      9.3561      9.5658
H      4.0290      2.4548      1.1400
H     -4.1727      7.0903      7.0290
H      8.4445      2.4340      8.8943
H     -1.8653     10.8584      5.1226
H      6.4932      0.6800      3.5398
C     -0.0816      9.3737      4.8316
C     -4.2958      7.3502      9.1723
H      4.5987      5.7713     -1.2856
H     -3.2454      8.9676      3.0622
C     -4.8837     10.7256      8.5406
H     -3.1034      3.3416      3.8423
H     -3.6816     10.5333      4.6195
C     -0.0620      7.8986      7.7605
C      0.6319      3.7408      5.5335
O      8.2672      5.0913      3.9370
C     -1.5562      8.2359      5.9931
C     -6.7317     13.8985      7.3068
C      5.2772      1.9533      6.4341
C      3.0090      0.8015      5.9762
H     -6.0061     14.6626      7.5717
H     -8.3988     15.9555      9.1205
H     -5.0984     11.3815     10.6113
H      0.9861      9.4085      6.0480
H     18.0791     12.6702     18.6726
H      0.0798      7.8524      8.9587
C      2.0138      5.0873      7.1031
H      0.6166      3.9544      1.9637
C      4.0245      5.6018      4.8894
C     -9.4558     15.7353      9.0257
H     19.2862     10.5450     14.4864
H      0.5106      6.2237     -0.5046
C      8.2291      7.1995     10.4782
H    -10.0530     16.1488     11.2401
H     11.9654      7.1951     13.0732
C      4.5172      3.3279      4.5244
C     17.5917      9.7028     18.1794
C     -6.9999     12.2194      9.0624
C     -6.0776      9.2879      6.7524
C      5.7474      4.5363      7.6272
C     -7.4445     13.7484      8.5606
H     -0.0606      4.1366      9.0682
H     -3.2352      9.9053      0.0359
H     -7.5131     11.8554      9.9173
H      9.6585      5.0536      0.6830
C     14.3951      9.7386     14.2200
H     -8.9109     17.2180     10.2971
H     -1.6033      8.8631      3.7984
267

C     19.7338      8.2358     13.3688
N     -3.0232     10.2904      1.9104
C      3.7507      1.4797      7.1553
C      2.6923      2.3465      2.2540
C      7.4530      4.4987      2.0604
H     -3.2005      6.6681      2.6388
C      7.4454      3.0576      2.1014
C      3.3812      4.1196      5.4897
C     16.2702      7.2493     19.4854
C      6.4877      1.8168      4.3197
C     -6.8851      8.5032      9.2382
C     13.4871      8.9464     13.9404
N      0.3406      2.6128      6.0214
C      0.8115      6.4645      0.7667
O     -0.7564      2.5708      1.3160
C      3.1043      4.1313      6.9512
H     13.5526      7.2405     11.8794
C     15.7636      6.2315     17.4794
C     17.1756     10.6219     15.9530
H     -1.8249      2.9374      4.6873
H     16.8454      7.0978     14.7312
C     17.2433      8.9814     15.9736
H     -8.4439      7.6394     10.3489
H     -6.3278      8.4468     10.3932
H    -11.3416     16.7112      9.6929
H     -2.8591      6.2269      6.5377
H     -7.0495     14.6745      9.1205
C      2.9865      2.9038      7.7926
H      7.2420      2.0498      5.0349
O     14.2197     10.2731     15.7192
C     -5.1378     12.3889      9.0612
C      6.1427      6.0054      9.7584
H      2.4857     -0.2160      6.1509
H      3.7858      5.5908      8.4981
C      6.5140      2.5295      3.0865
H      5.4002      3.1862      8.0449
H     -8.9233     11.8906     10.0983
H      2.1081      7.8165      9.1955
C     17.3377     10.7716     17.3663
C     -3.0044      8.6725      5.1030
O      1.9089      8.6264      4.8801
C     -1.5551      8.1156      7.0120
C      8.6380      7.6743     11.7853
C     20.5880      7.0269     12.7418
C      6.5760      6.4615     -0.9192
H      5.3738      3.3358      1.6912
H     17.8027      9.6905     14.2894
H      1.0356     -1.4413      5.3096
H     -5.7364      6.2955      8.0567
C      8.0530      2.5938      8.3984
H      1.4837      1.6760      1.0133
C      7.2228      6.1155     10.7658
C      7.9223      5.5194      3.0067
H      7.8132      7.7676      1.8349
C     -1.1228      6.6889      5.3629
H     16.5342      8.5057     21.1971
H     16.5221     11.3126     15.4092
H      2.8127      5.6585      0.6831
C     -3.3698     11.2615      7.4971
C      6.4777      4.8792      9.0818
C     15.9952      7.7535     17.9699
C      4.7201      5.2570     -0.3670
C     17.8595      8.8360     14.7900
H     -3.9572      7.9476      5.4535
H      8.2228      7.3237      3.6975
H     -9.3698     14.3884     10.6433
H     18.5746     12.4963     16.8325
C      0.0198      3.4192      8.2156
H     19.1350      9.7411     14.4157
C     13.2691      9.2490     12.3848
C      1.6532      1.9091      8.0632
H     10.4996      7.1693     11.0795
C     -0.4476      6.3106      1.5847
H      5.6770      7.0604     -0.8905
H     19.1697      8.2698     12.5528
C     10.0296      7.4693     12.6133
O     15.4031     10.0197     13.6197
C     -5.7459      8.6614      8.2353
C     17.0617      8.4402     20.2812
C     -9.6793     14.4266      9.4761
C      2.6082      1.2509      4.7028
H     -2.4846      9.8565      2.7076
H     -3.3756     11.3285      2.1157
H     -7.0357     12.6099      6.8037
H      2.4684      5.9922      9.2828
C      4.1558      3.4862      3.4702
H     -2.0626      9.9358      8.0971
C     -2.9190      8.0415      1.1572
C     11.5153      7.2606     11.6666
H     -2.9227     12.0847      5.9242
C      5.2437      2.0980      5.1749
H     16.9210     12.6249     16.7721
C    -10.7203     12.4342      8.8405
C     -8.5952     11.1923      8.3080
C     -2.3636      4.8589      4.0031
C     16.4739      9.6233     19.4199
C      3.0019      3.5863      2.7481
C     -7.6942      7.1993      9.4254
H    -11.5961     11.7655      9.1108
H     15.4179      8.0483     13.0037
H      8.1855      4.4729      4.5357
H      0.5578      3.1805     -0.2730
O      5.7830      6.8705      6.4010
C      0.7338      8.1858      4.4248
H     -8.9831     10.6778      7.3112
C     -2.7260      8.5812      3.6083
C     -2.2003      7.1593      3.0485
H     -4.9182      9.3450      8.4719
H      8.3756      2.6137      1.4136
C     -2.6498      8.9450      7.8410
H      2.4170      4.4007      5.1630
H      3.4687      3.8221      0.7888
H     -0.3318      3.0812      9.1617
C      3.4015      0.9863      1.8863
C     -0.4949      8.6320      2.0912
O      4.2774      3.8860      0.2823
O      8.0043      3.8147     10.5343
C      0.3641      3.3396      1.5797
C      0.2590      3.9320      3.8481
C     -6.2091     10.9363      7.2804
H     15.5079      9.7965     19.2720
H     -0.9414     10.0266      4.3151
H     12.7584      8.5472     10.5917
O      0.1206     10.1706      5.8951
C     -7.2057     11.0818      8.3015
C      0.7851      7.3836      6.7286
C     14.5991      7.8181     13.8230
C      0.6228      7.6811      3.0998
H     -5.0363     13.3450      8.5438
C      2.5666      0.0602      3.8811
C      0.2890      2.3587      7.3736
C     -3.0027     11.0774      6.1857
C     -2.3553      3.3109      5.7934
C     17.7985     12.0750     17.5896
C    -10.2821     16.7998     10.0079
C      1.5144      2.3694      1.5549
C     -1.4924      7.4915      1.8622
C     -9.3068     12.4083      9.0440
N      2.0948     -1.2388      4.6911
H      7.1098      2.6680      1.2932
C      3.7157      1.1685      0.3373
O     17.1214      6.3806     15.4078
C      9.6525      6.1518      0.3997
C     -2.7928      4.2186      2.8554
C     -3.1775      8.5150      9.1396
H      7.1087      2.5094      7.7601
H      1.6278      1.0064      6.7095
C     -3.2770      9.3872      1.1909
H     -8.5391      7.1195      8.7256
H      0.8485      6.8606      8.8838
H     -0.7493      9.4944      2.6623
H     13.6431     10.4325     10.6608
H      3.1400      0.3118      0.1843
H     -0.9472      3.8123      7.7689
C     14.8838      7.6210     15.3221
H      3.3834      2.1265      0.0342
C     13.9056     10.2630     11.6907
H      7.6302      4.7977     10.8365
H      2.2183     -1.9526      3.9364
C      4.4109      8.3675      4.4808
C      7.6868      7.0221      2.6985
C     19.9652      9.7096     13.7467
C     18.7293      7.9010     14.4226
C      4.4744      6.1781      6.4956
C      2.1116      5.0188      2.5771
C      6.1426      5.1492     -0.1672
C      5.5274      7.2930      4.1173
C      8.3034      6.1500      0.6100
H     14.5041     11.0280     12.3478
C      4.1247      5.0889      7.4974
C      1.5465      5.2223      1.0367
H     -3.5671      8.9846      7.2324
C      6.4270      7.0396      5.1471
H      1.7623      1.9301      4.7467
H     -2.0141      4.2907      1.8954
C      7.1478      5.0809      0.7796
H     -0.5933      3.6220      3.3879
O      7.7306      7.0879      5.2489
H      8.3204      8.6820     11.7106
H     20.7669      9.7977     14.4647
H      0.8202      2.9124      3.5616
H      1.3286      4.9002     -0.9223
H      8.3169      1.9710      9.2549
H      4.6169      5.0147      4.1732
C     12.7733      8.0998     11.6364
H      6.1619      4.5622      7.2253
C     15.7602      6.2953     15.9804
H     -0.2046      7.8195      8.6547
C     -2.3730      4.5870      5.3882
C      0.3379      7.0978      5.3678
H     -7.7120      9.3050      9.1543
H      3.2432      1.9557      4.4997
C      1.3032      6.0713      4.9304
H    -10.9554     12.5168      7.7397
H      2.0389     -0.7689      1.9666
H     13.5858      9.3442     15.7265
C     -4.9581      7.3477      7.9713
C     -8.6697     13.5900      8.5097
C      6.1991      7.3066      2.6967
C     -3.6550     10.0849      5.3216
C      0.0598      6.2655      3.0323
C     -1.3110      6.2353      3.8717
H      2.1752      3.3087      0.4139
H      3.8970      5.5910     -0.9655
H     -2.1949      2.6978      6.7468
C    -11.0958     13.8802      9.2625
H     -2.0207     10.8251      6.1749
C      0.8727      5.0977      3.4457
C      5.2762      3.2609      2.7290
H      1.0447      4.7779      7.9209
H     18.0086      8.7923     20.2261
C      7.4741      3.5717      9.3034
H     -2.8568     12.0710      8.0744
H     -6.5678     11.1048      6.1483
C      1.8935      6.7641      8.7764
C     -1.9304      5.7247      6.1736
C      2.6894     -0.1538      2.4985
C      1.2082      4.9914      5.7733
C      2.0718      6.8001      7.2481
C      1.3516      4.0550     -0.0799
H     -1.1817      5.7068      1.1164
H      4.2908      1.2160      2.5456
H     -2.3992      8.6572      9.9623
H      4.8280      1.1349     -0.2896
H     -4.4149      7.4026      7.0632
H      9.2478      2.2290      8.2616
H      6.5971      0.5751      4.7060
C     -0.5958      9.0829      5.0084
C     -4.2096      7.5476      9.2377
H      4.2501      6.3459      0.1765
H     -4.0580      8.8280      3.3903
C     -4.8548     11.4005      7.7898
H     -3.6884      3.6122      2.9223
H     -4.4148     10.0889      4.3810
C     -0.2547      7.6292      7.6061
C      0.4677      3.9315      5.4039
O      8.3221      5.3333      4.1982
C     -1.6851      8.2290      5.6434
C     -6.7810     13.6458      7.0557
C      5.1013      1.5792      6.4426
C      2.7253      0.9054      6.2385
H     -5.7224     13.7836      6.5635
H     -8.2710     16.1406      9.5564
H     -4.7581     12.0956     10.1020
H     -0.4391     10.9224      6.0751
H     17.9747     12.7538     18.4608
C      1.8828      5.1600      6.9808
H      0.0689      4.3197      1.7873
C      3.9991      5.4254      4.9930
C     -9.4319     15.8615      9.1718
H     19.6514     10.7355     13.3282
H      0.6205      6.4432     -0.2925
C      8.2612      6.9700     10.5372
H    -10.4487     16.4936     10.9106
H     11.9273      6.3964     12.0424
C      4.3865      3.2604      4.7905
C     17.3149      9.6069     18.2334
C     -6.7764     12.4262      9.1008
C     -5.8508      9.4527      7.0499
C      5.3829      4.2725      7.8726
C     -7.2058     13.7501      8.4741
H     -1.9447      5.3715      7.2768
H     -3.9527      9.4246      0.2832
H     -7.3441     11.9206      9.8537
C     14.5302      9.8363     14.4807
H    -10.0651     17.9365     10.1090
H     -2.3593      9.5343      3.6285
