263

C     19.5737      8.5159     13.3573
N     -2.5403     10.5793      1.7895
C      3.7201      1.5403      7.0581
C      2.1639      2.5549      2.0782
C     -5.5992     17.8591      1.9544
H     -2.8648      6.1845      2.7906
C     -5.2656     16.5031      2.4044
C      3.4506      4.0077      5.3081
C     16.5163      7.4039     19.6334
C     -6.6120     15.0136      4.1169
C     -6.7529      8.2303      8.5041
C     13.5104      8.7414     13.9554
N     -0.0779      2.8174      6.1387
C      0.5176      6.0116      0.6333
O     -1.4334      2.9666      1.3643
C      3.2617      4.2483      6.8783
H     13.6777      7.1623     10.7753
C     15.6927      6.3884     17.2062
C     16.8124     10.5419     16.1219
H     -3.0165      3.3090      7.0090
H     17.5622      6.6119     14.9455
C     17.2662      9.1611     15.9163
H     -8.2401      7.9323      9.8359
H    -10.6605     17.2336      9.7984
H     -0.6265      6.0914      7.5518
H     -7.0356     14.4922      9.1420
C      3.0588      2.9726      7.7061
H     -5.7180     14.5018      4.1430
O     14.1454     10.4211     15.4038
C     -5.3614     11.9433      9.4574
C      5.9357      6.1702      9.5859
H      3.3439     -0.1519      6.0636
H      3.9081      5.4984      8.2426
C     -6.5039     16.2069      3.2903
H      5.4928      3.2055      7.6491
H     -9.7327     11.7158      9.0188
H      2.1094      7.9368      9.3334
C     17.3071     10.9194     17.3237
C     -2.9562      8.5994      5.0705
O      2.0338      8.8624      4.6413
C     -1.2712      8.3818      7.3108
C      8.8633      8.0253     11.5647
C     20.4877      7.4943     12.6709
C     -6.2798     19.7733     -1.0584
H     -7.5363     16.4886      1.5214
H     17.4096      9.4219     13.7952
H      1.5701     -0.8696      5.6192
H     -5.4578      6.0834      7.9402
C      8.0128      3.1166      8.8177
H      0.3924      1.2020      2.0908
C      7.0763      6.3723     10.6061
C     -5.0496     18.6432      2.7313
H     -5.1740     20.5174      1.4873
C     -1.0013      7.1297      5.2829
H     16.0939      9.0218     21.3049
H     16.1600     10.8349     15.2423
H      2.4986      5.7276      0.8536
C     -3.7442     11.0380      7.8909
C      6.2069      4.8410      9.0413
C     16.1075      7.8874     17.6552
C     -7.8117     17.9876     -0.8442
C     17.3659      8.6372     14.5763
H     -3.6325      7.8805      5.4100
H     -5.1773     20.5972      3.1385
H     -8.7918     13.7678     10.4401
H     -7.4030     10.7995      9.1278
C     -0.9143      2.9258      8.3293
H     21.2792     10.0305     13.6991
C     13.1071      8.8920     12.0769
C      1.6694      2.3913      8.1919
H     11.1654      6.0234     11.4947
C     -0.8261      6.0325      1.6462
H     -6.9904     20.6382     -0.9787
H     -1.1939      2.9718      5.7556
H     19.0679      9.0823     12.5716
C     10.0586      7.3971     12.2628
O     15.6296     10.1681     13.8292
C     -5.8637      8.2151      7.4893
C     16.9434      8.7506     20.2727
C     -9.3533     14.3782      9.4009
C      2.5550      1.2090      4.6551
H     -2.1754     10.9141      0.8976
H     -6.0953     13.1975      6.6740
H      3.1328      6.4478      9.6476
C      4.1463      3.5426      3.3216
C     -2.3571      8.1814      0.7874
C     11.4787      6.8812     11.9012
C     -7.7002     15.1399      5.2679
H     17.1590     13.0811     17.3182
C    -11.1912     12.8664      8.4108
C     -8.7906     11.2389      7.2385
C     -1.8519      5.0984      4.4702
C     16.8087      9.8813     19.3978
C      2.7367      3.5591      2.9384
C     -7.6866      7.2800      9.1395
H    -11.4496     12.2623      9.1270
H     15.0233      8.1687     13.1849
H     -4.0540     18.9943      4.3279
H      2.0286      3.0606     -0.0540
O     18.7868      6.5882     19.3079
C      0.7124      8.3577      4.4219
H     -8.4176     12.2033      6.7519
C     -2.8642      8.5569      3.6678
C     -2.3129      7.1265      3.2018
H     -5.1984      9.9126      9.2483
H     -4.2968     16.5899      2.4354
C     -2.4794      8.6657      7.8105
H      2.4938      3.8989      4.5446
H     -9.7050     17.2038     -0.1378
H     -0.9368      2.4685      9.4874
C      2.9866      1.4468      1.9352
C     -0.3488      8.3677      2.2311
O     -8.7372     17.0834     -0.2557
O      7.5172      3.7774     11.0859
C     -0.1451      3.2377      1.5670
C      0.2388      3.8502      4.0487
C     -6.1216     10.6465      7.3419
H     12.4061      7.7239     10.2317
O      0.3847     10.1234      5.7815
C     -7.5241     10.8921      8.0238
C      0.9891      7.6883      6.9272
C     14.2817      7.4014     13.7911
H     15.8963      8.1558     15.0547
C      0.6578      7.4996      3.0577
C      2.3655      0.0273      4.0057
C      0.2188      2.5042      7.4580
C     -2.9972     10.8449      6.8284
C     -2.3972      3.7165      6.2800
C     18.0765     12.4356     17.6085
C     -9.7712     16.6544     10.1194
C      0.7765      2.1597      1.8028
C     -1.3828      7.5694      1.8586
C     -9.7288     12.2860      8.2131
N      1.9782     -1.1407      4.7312
C      3.5469      1.5957      0.4173
O     16.8592      5.9307     14.8752
C     -3.5276     19.0694      0.0913
C     -2.4736      4.2356      3.5841
C     -2.8708      8.3148      9.2616
H      7.7552      3.0108      7.7009
H      1.6215      0.7888      6.2009
H      8.4765      3.8057     11.3048
H     -4.4854      9.2213      6.6524
C     -2.9827      9.3543      1.2313
H     -8.3212      6.6404      8.2328
H      1.3167      6.1945      8.8541
H     -0.5556      9.5428      2.4878
H     14.5925      9.8049     10.5955
H      4.6557      1.3616      0.6207
H     -1.7291      2.9208      7.8818
C     14.9279      7.2094     15.1106
H      3.4483      0.7112     -0.3698
C     14.1367      9.5156     11.7236
H      7.7167      5.5788     10.7477
H      1.6579     -1.8222      3.9758
C     17.4520      8.3637     17.1192
C     -5.4016     20.0056      2.4412
C     20.1557      9.7480     14.1921
C     18.6398      7.9700     14.4604
C     17.4834      6.2945     19.2674
C      1.9466      4.8831      2.5767
C     -6.8090     18.7761      0.0166
C     18.4957      7.2098     17.0514
C     -4.8361     19.3175      0.3593
H     14.7539     10.3593     11.9353
C      4.3110      5.0632      7.2467
C      1.7600      5.0680      1.1306
H     -3.5787      8.6274      7.7059
C     19.2545      7.0654     18.0807
H      1.6995      2.1883      4.5992
H     -2.3329      4.5617      2.3893
C     -5.7131     18.2398      0.5601
O     20.4986      7.1018     18.3053
H      8.9356      9.2523     11.7487
H     19.7956     10.9173     13.8574
H      0.6376      3.9385     -0.1673
H      4.4939      5.6791      4.1344
C     12.6485      7.6453     11.2825
H      6.2581      4.6130      6.9211
C     15.7438      6.0172     15.7626
C     -1.8541      4.9358      5.9728
C      0.6221      7.1167      5.3520
H     -7.0836      9.1453      9.0439
H      3.4672      2.0023      4.0037
C      1.3887      5.7423      4.9347
H      1.8934     -0.9253      1.9830
H     13.4433     10.1799     15.9075
H     -2.5236      7.4105      9.6170
C     -4.8302      7.1080      7.7917
C     -8.8280     13.5257      8.2283
C     -6.7489     20.1228      2.7227
C     -3.2843     10.2048      5.4447
C     -0.1407      6.1968      3.0522
C     -1.3233      6.4203      4.0172
H     -3.0331     11.5335      8.4454
H      1.9495      4.7635     -1.0083
H     -7.1229     17.6678     -1.6821
H     -3.3325      3.5807      5.4565
C    -10.9162     14.2176      9.1481
H     -2.1190     11.3460      6.7946
C      0.6727      5.1992      3.6115
C     -7.7218     16.1160      2.4436
H      1.3647      5.0316      7.8150
H     17.8791      8.5308     20.1948
C      7.2080      3.7417      9.6466
H     -1.5681     10.2401      2.0288
H     -6.1701     11.6399      7.0020
C      2.3150      6.8228      8.7655
C     -1.1713      6.1329      6.5913
C      2.3841      0.0780      2.6487
C      1.1334      4.8999      6.0393
C      2.1764      6.8159      7.2250
C      1.8226      4.1672     -0.0188
H      4.0304      1.1563      2.2827
H     -3.1916      9.1521      9.8299
H      3.8950      2.8666      0.1917
H     -4.1494      6.6151      7.0306
H      8.6788      2.5577      9.3730
H     -2.7622     10.4850      4.6046
H     -7.1437     14.3325      3.3547
C     -0.3307      9.2474      4.8368
C     -4.1774      7.6466      9.0897
H     -8.6148     18.6644     -1.2045
H     -3.5567      8.8410      2.9373
C     -5.1189     10.8731      8.4531
H     -3.5866      3.7686      3.8620
H     -4.2726     10.1535      4.9451
H     -6.1492     17.0148      4.1750
C      0.0040      8.0691      7.7190
C      0.4702      3.8238      5.4789
O     -4.6720     18.2472      3.9967
C     -1.3434      8.4223      5.7184
C     -6.6939     13.8516      7.3828
C     -7.7983     14.4235      6.4836
C      2.9679      0.8900      5.9710
H     -6.0381     14.6913      7.5586
H     -7.9884     15.9421      8.8135
H     -5.2915     11.6091     10.5065
H      0.8739      9.5631      6.3943
H     18.7520     12.5996     18.4188
H      0.1886      7.8060      8.6996
C      1.9940      5.0934      7.0684
H      0.0492      4.3248      1.6778
C      3.9805      5.5198      5.0451
C     -9.0854     15.7194      9.0881
H     20.3085      9.8859     15.5141
H      0.2514      6.0117     -0.3701
C      8.1081      7.4347     10.3577
H     -9.9846     16.2767     11.2414
H     11.6738      6.4209     12.7598
C      4.3688      3.1296      4.7398
C     17.8923      9.7723     18.3329
C     -6.8981     12.1688      9.1160
C     -5.5644      9.2401      6.7274
C      5.6313      4.4662      7.7983
C     -7.3046     13.6464      8.6134
H     -0.7365      3.9039      8.4460
H     -3.8961      9.4048      0.6279
H     -7.4285     12.3169     10.1866
H     -3.5740     17.9549      0.0065
C     14.5472      9.8645     14.2865
H     -9.1459     17.5671     10.5532
H     -1.8410      9.1656      3.4590
263

C     19.8121      8.7090     13.6701
N     -2.3552     10.5068      1.9594
C      3.9806      1.6951      7.1313
C      2.2564      2.6558      2.2334
C      7.5068      4.9193      2.1059
H     -3.5104      6.9872      2.8830
C      7.8714      3.2867      2.6493
C      3.5029      3.9631      5.2178
C     16.1307      7.0885     19.3983
C      6.6166      1.6973      4.0042
C     -7.7256      8.2116      8.8590
C     13.6456      8.7928     13.7898
N      0.5749      2.3472      5.9889
C      0.9736      6.3208      0.6398
O     -1.3478      3.0222      1.9629
C      3.0895      3.9705      6.8075
H     13.9178      7.7515     11.3964
C     15.6638      6.2196     17.2673
C     16.5225     10.3757     16.5630
H    -11.4341     13.9988     10.1792
H     -1.3465      2.6128      5.0584
H     17.6713      6.9987     15.6720
C     17.1136      9.1031     16.1805
H     -8.4447      7.4121     10.3609
H     -8.3959      9.1555      8.9487
H     -1.2308      5.4850      7.0809
C      3.0288      2.6804      7.5189
H      7.6109      1.4691      4.1646
O     13.9258     10.3672     15.5222
C     -4.9427     12.5409      8.7253
C      6.3166      6.1913      9.6870
H      3.3816     -0.0372      6.1628
H      3.5302      5.2946      8.3689
C      6.4657      2.8814      3.1147
H      5.8812      3.6557      7.6842
H     -8.7276     11.1673      9.7504
H      2.9955      6.3264      9.0890
C     16.8257     10.8654     17.8244
C     -2.9114      8.2815      5.0201
O      1.9537      8.6350      4.7368
C     -1.3731      8.3586      7.0262
C      8.8340      8.0707     11.7279
C     20.5041      7.5794     12.8327
C      6.5636      6.9399     -0.7059
H      5.6190      4.2711      1.4650
H     17.3483      9.6241     14.4398
H      1.5541     -0.6341      5.8261
H     -5.6164      6.7398      7.8519
C      7.9476      3.0425      8.6655
H      0.2861      1.6666      2.4770
C      7.1163      6.5560     10.8343
C      7.8656      5.7003      3.1638
H      8.1107      7.7525      1.9664
C     -1.0767      6.8535      5.0082
H     15.9343      8.3451     21.0281
H     15.9029     10.6759     15.6173
H      2.7581      5.4100      0.5438
C     -3.1218     11.3365      7.4346
C      6.3025      4.7784      9.1913
C     16.0717      7.6935     17.8180
C      5.1743      5.4244     -0.3771
C     17.9167      9.0137     15.0870
H     -3.4566      7.2580      5.1447
H      8.2590      7.2124      4.1639
H     -9.1897     14.3666     10.9274
H     18.4867     11.9212     16.6312
C     -0.1883      3.5841      8.0979
H     19.6659     10.3393     14.4737
C     12.5491      8.9122     12.5845
C      1.7382      1.7645      7.8961
H     11.0951      6.3276     10.9104
C     -0.5379      6.3189      1.3120
H      5.7013      7.7484     -1.1145
H     18.9874      9.0083     12.9471
C     10.3481      7.5114     12.2274
O     15.2728     10.6969     13.5311
C     -6.4861      8.5478      8.5743
C     16.5968      8.1951     20.1628
C     -9.4370     14.5748      9.7823
C      2.5975      1.3471      4.8088
H     -1.4585     10.6545      2.2425
H     -7.2907     12.2669      7.2215
H    -10.9718     17.4620     10.1531
C      4.1163      3.3011      3.1299
C     -1.7133      8.6616      0.3434
C     11.7539      6.8020     11.8453
H     -1.7123     10.8935      6.2494
C      5.4223      2.1333      4.9699
H     17.2333     13.0130     17.7904
C    -10.4920     12.4532      8.8511
C     -8.6752     11.2939      8.7205
C     -1.9581      5.0367      3.6570
C     16.4193      9.3658     19.4008
C      2.7592      3.7356      2.6263
C     -8.0130      7.0691      9.5259
H    -10.4335     11.9252      9.8649
H     15.6885      7.8420     13.3227
H      9.4665      5.6483      3.9782
H      0.7542      4.0866     -0.1899
O      5.6066      6.8189      6.5631
C      0.6817      8.0957      4.3207
C     -2.8337      8.6968      3.5762
C     -2.3931      7.2940      2.8223
H     -6.1775      7.6537      9.1201
C     -2.4335      8.4917      8.1555
H      2.5993      3.8794      4.6176
H     12.8579     10.1104     10.7001
H      3.6642      4.2016     -0.1244
H      0.6340      4.1609      8.6351
C      3.0287      1.5271      2.0796
C     -0.0744      8.5595      2.0678
O      4.5336      3.8999     -0.1059
O      7.5988      3.8810     10.8110
C     -0.1905      3.3499      1.5207
C      0.3081      3.6783      3.7840
C     -6.0305     10.6965      7.4040
H     15.3876      9.9855     19.2774
H     -0.4060      9.9775      4.6752
H     12.3961      8.4156     10.6063
O      0.4220      9.6352      6.0140
C     -6.9809     11.7010      8.0951
C      0.5812      6.9865      6.4713
C     14.7191      7.6044     13.9100
H     15.8403      8.1140     15.6189
C      0.5869      7.7045      2.9240
H     -4.4323     13.4985      8.6456
C      2.0849      0.1884      4.1023
C      0.4402      2.3007      7.3539
C     -2.5787     10.3703      6.5936
C     -2.1500      3.1088      5.5883
C     17.8896     12.0891     17.7996
C     -9.9812     16.9939     10.2188
C      0.8637      2.4212      1.7005
C     -1.5409      7.5790      1.5109
C     -9.2299     12.6259      8.3322
N      1.8473     -0.8275      4.9820
C      3.6247      1.3731      0.7806
O     17.0605      6.0206     15.1663
C      9.6097      6.4455      0.2634
H     18.5803      9.4665     18.7584
H     -0.5349      1.4773      7.3102
C     -2.7372      4.5133      2.7158
C     -2.6082      7.7057      9.4686
H      7.6260      2.7995      7.6405
H      2.0626      0.9316      6.9126
H      8.3434      3.3477     11.1517
H     -4.7214      9.5772      7.9969
C     -2.5468      9.8471      0.7931
H     -8.7391      6.4385      9.2115
H      1.6184      7.4846      9.0621
H     -2.7643      2.4563      5.1931
H     -0.5772      9.4089      2.5981
H     14.2086     10.2122     11.7340
H     -1.0932      3.3422      8.7479
C     15.0677      7.4357     15.3797
H      3.5228      0.8362     -0.1149
C     13.1399     10.0311     11.8249
H      2.1218     -1.7346      4.6523
C      4.4742      8.0682      4.4038
C      7.8402      7.1572      2.9302
C     20.6624      9.9142     14.1165
C     18.9568      8.3081     14.7311
C      4.3159      6.1256      6.2183
C      1.9743      5.0506      2.3826
C      6.4212      5.7673      0.0821
C      5.7037      7.3436      4.0962
C      8.3480      6.8908      0.7544
C      4.1694      4.9947      7.2218
C      1.7491      5.0143      0.8170
H     -2.7012      6.2090      6.0078
C      6.5570      6.9059      5.2104
H      0.8039      1.4045      5.4649
H     -3.3069      5.3114      2.0153
H      0.9219      1.7471      0.8353
C      7.4391      5.6586      0.9790
H     -0.6108      3.1558      4.0143
O      7.7246      7.3052      5.5132
H      8.4498      9.0605     11.4036
H     21.3667      9.9702     14.9357
H      0.5366      2.6432      3.3921
H     -3.2082     10.7127      2.5588
H      2.3201      4.7314     -0.9615
H      8.8657      2.4147      9.1323
H      4.9104      5.7254      4.7536
C     12.7192      7.7578     11.5625
C     15.7354      6.2337     15.6182
H      1.4595      5.4926      8.6675
C     -1.8528      4.6699      5.1524
C      0.3765      6.8400      5.0684
H     17.6286      8.0408     20.3436
H      1.8797      2.3025      4.2587
C      1.2095      5.7419      4.5806
H    -11.4809     12.4837      8.0052
H      2.7747     -0.3835      2.3628
H     14.2083     11.4213     15.6882
H      0.1237      7.1715      8.4551
C     -4.6121      7.2287      8.1952
C     -8.4696     13.8521      8.5499
C      6.4536      7.4459      2.8892
C     -3.4325      9.3501      5.8667
C     -0.1870      6.1312      2.7576
C     -1.2716      6.4010      3.5555
H      5.0805      5.8834     -1.5445
H     -2.1647      3.1406      6.6225
C    -10.8840     13.9203      9.1874
C      0.7070      5.1318      3.1823
C      5.4518      3.5703      2.4766
H     -5.7855      8.6453      6.7472
C      7.2898      3.7948      9.5285
H     -2.3813     12.1117      7.5936
H     -6.2227     10.9935      6.3608
C      2.1371      6.3931      8.5527
C     -1.6327      5.8440      6.1650
C      2.3408      0.4307      2.8286
C      1.0098      4.6974      5.6863
C      1.9770      6.3737      7.0885
C      1.6890      4.1986     -0.3581
H     -1.0500      5.3401      0.8875
H      4.0111      1.6308      2.8451
H     -2.0167      8.1745     10.2798
H      3.3157      2.1766      0.3036
H     -4.5117      7.8897      7.4754
H      6.3871      0.7205      3.3965
C     -0.2291      9.0645      4.9455
C     -3.9612      7.1389      9.4080
H      4.4202      5.6175      0.3184
H     -3.8682      9.0471      2.9572
C     -4.5899     11.7179      7.7896
H     -3.5388      3.9351      2.3991
H     -4.4184      9.9528      5.7395
C     -0.1935      7.5440      7.4753
C      0.7253      3.4070      5.2140
O      8.6168      5.2532      4.2732
C     -1.4143      8.1601      5.5052
C     -6.5777     14.3160      7.2095
C      5.3282      1.7502      6.5317
C      3.0315      0.8531      6.1066
H     -5.7438     13.8443      6.3774
H     -8.5665     16.4051      8.5621
H     -6.3715     12.4938     10.0992
H      0.2672     10.7820      6.1263
H     18.3772     12.1732     18.7360
C      1.8605      4.9559      6.7912
H     -0.0525      4.3465      0.8670
C      4.0089      5.4135      5.0016
C     -9.5687     16.0451      9.1264
H     21.3517     10.0880     13.3564
H      0.6364      6.4393     -0.2242
C      8.3267      7.1156     10.6089
H     -9.7098     16.4210     11.1561
H     11.9390      6.1154     12.6214
C      4.4603      2.8800      4.5324
C     17.4951      9.7729     18.6584
C     -6.4148     12.7158      8.9800
C     -5.6461      9.1843      7.6133
C      5.3288      4.4005      8.1506
C     -6.9329     14.0598      8.6369
H     -0.9878      4.0999      4.9099
H     -3.1580     10.4039      0.2244
H     10.2772      5.5543      0.3378
C     14.2863     10.0667     14.2736
H     -9.0993     17.7548     10.5185
H     -1.9828      9.5474      3.5305
263

C     19.6669      8.5762     13.4681
N     -2.8787     10.7422      1.6829
C      3.7095      1.6970      7.1088
C      2.3308      2.5130      2.2372
C      7.6862      4.5931      2.1765
H     -3.1627      7.3160      2.0652
C      7.5348      3.3667      3.1911
C      3.2808      3.7510      5.1332
C     16.1729      6.9141     19.3336
C      6.3027      1.4704      4.2328
C     -7.6132      8.2847      9.7052
C     13.7459      9.0257     13.8709
N      0.8007      2.5833      5.8484
C      0.6803      6.3201      0.7225
O     -1.2624      2.7800      1.8813
C      2.9513      3.9343      6.8575
H     13.6819      7.3506     11.6810
C     15.7350      6.2626     17.0487
C     16.4590     10.4661     16.9243
H    -11.1547     14.5377     10.3330
H     -1.3256      2.5103      5.1497
H     17.2091      7.0493     14.4105
C     17.1754      9.2249     16.2936
H     -8.5071      6.6372     10.6356
H     -8.5494      8.7267      9.8098
H     -1.2245      5.7902      6.8847
H     -6.8206     14.9450      9.3650
C      2.8676      2.8246      7.7654
H      7.2856      1.3057      4.9110
O     14.1464     10.7282     15.4924
C     -5.0901     12.9389      8.0250
C      6.2266      5.9017      9.7251
H      3.6317      0.1339      5.9202
H      3.4094      5.4568      8.2259
C      6.4546      2.7801      3.2904
H     -8.8235     10.5288      8.6632
H      3.3303      6.8973      8.4622
C     17.4052     10.9170     17.9789
C     -2.8188      8.5982      5.0066
O      2.0967      8.5828      4.8074
C     -1.2645      8.2664      6.9152
C      8.7571      8.1530     11.8818
C     20.5528      7.4889     12.8053
C      6.5648      6.9083     -1.0341
H      5.4586      4.3840      1.6954
H     17.1546      9.9513     14.2350
H      1.9192     -1.1766      5.8222
H     -5.0511      6.1813      8.7626
C      8.1318      3.0438      9.1680
H      0.5994      1.5706      2.2827
C      7.3930      6.4860     10.7057
C      8.1556      5.6271      2.9431
H      8.0393      7.6240      2.0820
C     -1.1787      6.7672      5.0450
H     16.3998      8.4158     21.0299
H      2.6880      5.8621      0.2885
C     -3.4434     11.4665      7.4721
C      6.6828      5.1360      8.6801
C     16.0216      7.4047     17.8697
C      5.0865      5.1775     -0.7413
C     17.4919      9.2262     14.9092
H     -3.4660      7.6856      5.0224
H      8.3838      7.5984      3.8080
H     -8.9090     14.8218     10.6923
H     18.5078     11.7428     16.4878
C     -0.0351      3.6103      8.1018
H     20.3493     10.6009     13.6422
C     12.7319      8.8837     12.6236
C      1.8202      1.4986      7.9825
H     10.9501      6.3023     11.2186
C     -0.4743      6.3918      1.4555
H      5.4315      7.4182     -1.1406
H     19.1535      9.1567     12.7162
C     10.0672      7.5528     12.3138
O     15.4992     10.3826     13.6210
C     -6.4554      8.4841      9.0651
C     16.8234      8.0983     20.0798
C     -9.4139     14.8785      9.7484
C      2.4934      1.1881      4.8307
H     -2.5309     11.0815      2.4932
H     -6.5984     12.2964      6.5460
H    -10.7492     17.9252     10.0069
C      4.2590      3.2800      2.8807
H     -3.2870      8.2636      7.3406
C     -1.7796      8.6183      0.4006
C     11.4876      6.8739     11.8917
H     -1.8592     10.8077      5.7189
C      5.0223      1.9659      4.9002
H     17.3147     12.9490     17.4628
C    -10.2774     12.6002      9.2866
C     -8.4727     11.6483      8.0459
C     -2.0707      5.1118      3.5477
C     16.5963      9.2432     19.2759
C      2.8844      3.7248      2.3876
C     -7.8821      6.7360      9.7889
H     15.2529      7.7799     13.3456
H      9.5841      5.8078      4.2302
H      0.6479      4.2093     -0.7035
O      5.4922      6.4275      6.3156
C      0.6796      8.0370      4.4386
C     -2.4911      8.8602      3.6055
C     -2.1075      7.7332      2.7133
H     -5.8293      7.5565      9.1642
H      8.2829      3.2043      3.7398
C     -2.3159      8.4087      7.8970
H      2.3431      3.6271      4.5247
H     12.1575     10.7287     11.5862
H      4.5799      3.5381     -1.0656
H      0.7181      3.6497      8.8875
C      3.1062      1.3176      2.0879
C     -0.1471      8.5987      2.1168
O      4.6167      3.9601      0.0118
O      7.3397      4.1759     10.9283
C     -0.1555      3.1690      1.5930
C      0.2012      3.7292      3.6906
C     -5.8966     10.7187      7.6908
H     -3.1676     10.6710      8.5535
H     15.5805      9.3805     19.6616
H     -0.8280      9.7611      4.2151
H     12.5857      8.0340     10.4632
O      0.1489      9.9050      5.7435
C     -7.0013     11.9277      7.7596
C      0.7423      6.9204      6.5859
C     14.6620      7.7911     14.0246
H     15.7897      8.3592     15.3795
C      0.5868      7.7383      2.9854
H     -4.6637     13.6590      8.8753
C      2.4492      0.0384      4.0288
C      0.5069      2.4378      7.2977
C     -2.6139     10.5592      6.4986
C     -2.1000      3.2695      5.6200
C     18.1021     12.1426     17.4722
C     -9.9188     17.2529     10.0943
C      0.9091      2.1741      1.5920
C     -1.2497      7.9558      1.4953
C     -9.0474     12.8041      8.6119
N      1.9483     -0.9842      4.8020
C      3.9309      1.2072      0.7634
O     17.0902      6.1694     14.8867
C      9.5868      6.4572      0.4133
H     18.7582      9.2620     18.5607
H     -0.6225      1.8153      7.2414
C     -2.7028      4.5467      2.3656
C     -2.3507      7.8667      9.1951
H      8.2763      2.4099      8.2362
H      2.1472      0.9762      7.1651
H      8.2070      4.3085     11.6654
H     -4.7564      8.6141      7.9103
C     -2.4226      9.9004      0.5784
H     -7.9707      6.5894      8.7222
H      1.9543      7.4523      9.2933
H     -2.9752      2.6943      5.4913
H     -0.5647      9.3644      2.6960
H     14.0304     10.6236     11.6854
H      4.7704      1.5406      0.8668
H     -0.8816      3.6139      8.9436
C     14.8853      7.4583     15.3380
H      3.9281      0.1437      0.5429
C     13.0019      9.9775     11.6913
H      1.1484     -1.6006      4.3516
C      4.4458      8.1660      4.1732
C      7.7390      7.2016      2.8149
C     20.6589      9.5639     14.0760
C     18.6207      8.2285     14.6607
C      4.1595      5.8010      6.3536
C      2.1633      4.9019      2.2429
C      6.4668      5.5461     -0.3664
C      5.5474      7.5505      4.2422
C      8.2400      6.4560      0.6617
C      3.9163      4.8765      7.3940
C      1.8115      5.2958      0.8906
H     -2.9485      6.0567      6.0664
C      6.1413      7.1497      5.4651
H      1.1891      1.7312      5.5309
H     -3.1484      5.2184      1.8299
H      1.0301      1.5200      0.7939
C      7.2016      5.4373      0.8831
H     -0.9377      3.4834      3.7967
O      7.2791      6.9478      5.3976
H     20.0527      9.7627     15.0816
H      0.6547      2.8092      3.3687
H     -3.8069     10.6838      2.2546
H      2.2070      3.6353     -0.9679
H      9.0929      2.8744      9.9087
H      4.4620      5.0572      4.1363
C     12.6700      7.5982     11.5690
C     15.7165      6.2556     15.5763
H      1.9879      5.7479      8.6295
C     -1.9356      4.6810      5.0544
C      0.3401      6.7679      5.2182
H     17.7574      7.8378     20.5163
C      1.4327      5.7351      4.5829
H    -10.9101     11.5002      9.0146
H      1.9307     -0.6744      2.1005
H     15.1169     10.3759     16.2201
H      0.0078      7.9030      8.5398
C     -4.0828      6.3525      8.5696
C     -8.4985     14.1170      8.4564
C      6.2634      7.4480      3.0811
C     -3.5394      9.4903      5.9233
C     -0.2392      6.3276      2.9674
C     -1.5105      6.4264      3.6691
H      1.4367      2.9316      0.3353
H      4.5989      5.2381     -1.4815
H     -1.9395      3.2411      6.6834
C    -10.5638     14.0329      9.3442
C      0.6670      5.0700      3.2987
C      5.4870      3.6362      2.6106
H      0.9739      4.4751      7.7594
H     -6.1620      8.6707      6.7906
C      7.4488      4.1732      9.4637
H     -2.8327     12.5124      7.4550
H     -6.0217     11.0013      6.6023
C      2.3238      6.6407      8.6022
C     -1.8535      5.8330      5.9007
C      2.7345     -0.2093      2.7044
C      1.0471      4.7873      5.5540
C      1.9271      6.5200      7.1317
C      1.6285      3.9678     -0.1460
H     -1.4415      5.4515      1.3814
H      4.0055      1.1418      2.7035
H     -1.4422      7.4349      9.8541
H      3.2575      1.9184      0.1406
H     -3.6046      6.1978      7.5321
H      5.9755      0.9234      3.2644
C     -0.4333      8.9956      4.9202
C     -3.3971      6.9004      9.5042
H      4.7419      5.9510     -0.0683
H     -3.4409      9.2526      3.3567
C     -4.7878     11.6213      7.6933
H     -3.1581      3.5472      2.5501
H     -4.5385      9.1407      6.1913
C      0.0017      7.5506      7.4020
C      0.5550      3.6719      5.0272
O      8.6749      5.4091      4.2590
C     -1.5000      8.2387      5.4662
C     -6.8251     14.6326      7.0092
C      5.0008      2.0470      6.3070
C      3.0077      1.0042      6.1281
H     -0.0777     10.5761      5.1281
H     18.6812     12.7306     18.3514
H     13.2857     10.0336     10.3411
C      1.6627      5.0163      6.8498
H     -0.4500      4.1831      0.8641
C      3.6818      5.2952      4.9052
C     -9.7248     16.0518      9.0608
H     21.8250      9.3903     13.9922
H      0.0381      5.7260     -0.1086
C      8.7231      7.1643     10.6833
H    -10.1053     16.7012     11.1124
H     11.4891      6.0353     12.4916
C      4.1380      2.7419      4.2404
C     17.9920      9.8402     18.9397
C     -6.3591     12.8737      8.5713
C     -5.7704      9.1716      7.8163
C      5.3867      4.3688      8.0676
C     -6.8478     14.5212      8.4943
H      0.1678      4.3409      6.2073
H     -2.9167     10.3898     -0.1854
H     10.3563      5.7580      0.7735
C     14.2819     10.3465     14.1827
H     -9.0021     17.7681     10.0798
H     -2.0530      9.8330      3.6197
263

C     19.9296      8.7386     13.5535
N     -2.6858     10.6614      1.8108
C      3.8726      1.7698      7.0497
C      2.2474      2.3683      1.9875
C      7.5353      4.7525      2.0898
H     -3.2048      7.4376      2.4898
C      7.6086      3.5276      3.0097
C      3.4295      3.8598      5.1094
C     16.2879      7.1236     19.2957
C      6.3306      1.6051      4.1211
C     -7.4506      8.5125      9.5776
C     13.5962      8.9599     13.9381
N      0.7762      2.5553      5.7426
C      0.4427      6.0069      0.5200
O     -1.3375      2.6177      1.8993
C      2.9875      3.9311      6.5989
H     13.5200      7.1160     12.7538
C     15.7130      6.2310     17.2695
C     16.6573     10.4544     16.5762
H    -11.4449     14.3905      9.9052
H     -1.5364      2.4066      4.9243
H     17.6499      6.8750     14.8775
C     17.1103      9.1483     16.1187
H     -8.0007      9.4269      9.4916
H     -1.5269      5.0728      6.6548
H     -6.9874     15.0545      9.1168
C      2.8985      2.7267      7.4714
H      7.1295      1.8605      4.8574
O     14.2127     10.6992     15.3822
C     -5.0201     12.8943      8.1147
C      6.3397      6.1579      9.5495
H      3.4161     -0.3161      6.5714
H      3.6093      5.0158      8.3728
C      6.4930      2.8189      3.3680
H      6.0564      3.6645      7.0899
H     -8.2925     10.5436      8.6806
H      3.3148      6.7623      8.8155
C     17.5435     10.6868     17.7869
C     -2.8634      8.5338      4.9892
O      2.1399      8.6049      4.7834
C     -1.2061      8.3470      6.7343
C      8.8329      7.8966     11.6784
C     20.6244      7.5494     12.6966
C      6.4900      6.8414     -0.9889
H      6.3585      3.6667      1.6479
H     18.1656     10.1302     14.1077
H      1.2734     -0.6347      5.6778
H     -4.6130      5.4729      8.4677
H     15.7062     10.0218     12.7254
C      7.6959      2.9605      9.1541
H      0.2295      1.7062      2.6610
C      7.1242      6.7442     10.5646
C      7.8311      5.9466      3.0244
H      7.8600      7.6020      1.7161
C     -1.2659      6.9096      4.9343
H     16.1326      7.8717     20.9696
H      2.4962      5.7994      0.7085
C     -3.1367     11.5229      7.5969
C      6.4231      4.9929      8.8471
C     15.9908      7.6162     17.9816
C      4.8072      5.2941     -0.4100
C     17.7842      9.0806     14.8483
H     -3.4453      7.5647      4.8783
H      8.2745      7.7891      3.8315
H     -8.9582     14.6306     10.5993
H     18.2420     12.2426     16.9115
C     -0.0387      3.4966      8.1334
H     21.3615     10.4276     12.8552
C     12.7058      8.9569     12.5924
C      1.7962      1.9162      7.9597
H     11.6201      6.4971     10.6880
C     -0.5331      6.4302      1.4928
H      5.5364      7.3151     -1.1857
H     19.1404      9.3385     12.9757
C     10.3224      7.7841     12.4008
O     15.5455     10.2731     13.7624
C     -6.2958      8.3769      8.9347
C     16.6848      8.2376     20.1793
C     -9.5008     14.7473      9.6418
C      2.6629      1.1604      4.8680
H     -1.6628     10.7976      2.3919
H     -6.8261     12.2713      6.8485
H    -11.1720     16.9318      9.7082
C      4.2467      3.2901      2.9534
H     -3.2870      8.0446      7.0524
C     -1.7915      8.8231      0.2802
C     11.5807      7.0418     11.6583
H     -1.8809     11.4301      6.0036
C      5.0850      1.8108      4.9409
C    -10.2153     12.6479      9.3176
C     -8.3523     11.4631      7.9749
C     -2.3914      5.1609      3.5970
C     16.5546      9.3422     19.3014
C      2.8099      3.5893      2.4571
C     -7.9723      6.9309      9.5516
H     15.3389      7.4063     13.0649
H      8.8283      5.8508      4.9248
H      0.8055      4.0982     -0.8478
O      5.7020      6.2943      6.6283
C      0.5363      8.1485      4.4445
H     -9.2250     11.5271      7.2672
C     -2.6960      8.9130      3.3371
C     -2.1846      7.7529      2.7388
H     -6.4175      7.5817      8.3233
H      8.4326      3.0948      3.4553
C     -2.4517      8.2216      7.6489
H      2.6200      3.5671      4.6542
H     12.4174     10.9240     11.7467
H      3.8580      3.3641     -0.3456
H      0.7423      3.6419      8.9194
C      3.3974      1.1077      2.0113
C     -0.0827      8.6255      2.1184
O      4.3664      4.0325      0.0970
O      7.3784      4.3038     11.0575
C     -0.2999      3.0868      1.6400
C      0.2563      3.8604      3.7892
C     -5.6853     10.7481      7.7523
H     15.4746      9.7443     18.7543
H     -0.7188      9.8119      4.3570
H     13.7338      8.0452     11.2742
O      0.2760      9.9156      5.9237
C     -6.8853     11.8407      7.7639
C      0.6490      7.0600      6.6807
C     14.7554      7.7807     14.0534
H     15.4765      8.3938     15.7015
C      0.5876      7.7434      3.0284
H     -4.3694     13.8225      8.1038
C      2.5072     -0.0469      4.2529
C      0.3909      2.2148      7.3629
C     -2.7129     10.7290      6.4375
C     -2.1999      3.2225      5.4544
C     17.7073     12.1626     17.8110
C    -10.2326     16.7917     10.0933
C      0.7218      2.0524      1.6023
C     -1.1732      7.8656      1.6013
C     -8.8122     12.6711      8.9117
N      1.9408     -1.0588      4.9119
C      3.6710      1.0462      0.5502
O     16.9386      6.2406     14.9625
C      9.6973      6.6769      0.4695
H     18.3030      9.0404     18.7478
H     -0.4986      1.5539      6.8921
C     -2.9294      4.7891      2.2435
C     -2.3043      7.6750      8.9988
H      7.5519      2.8700      8.0213
H      1.9518      0.9109      6.7698
H      7.8317      3.5716     11.4412
H     -4.7089      8.9175      8.1080
C     -2.3793      9.9828      0.5884
H     -8.3189      6.2660      8.8854
H     -3.1128      2.6773      5.4273
H     -0.7793      9.3772      2.5247
H     14.1224     10.8746     12.0440
H      4.7313      1.3238      0.6685
H     -1.0443      3.3028      8.8373
C     14.7710      7.4562     15.3240
H      3.4832      0.2300     -0.0603
C     13.2917     10.1692     11.7713
H      2.6095     -1.7760      5.2648
C      4.1770      8.2057      4.2250
C      7.8264      7.4020      2.8790
C     20.8946      9.8150     13.8016
C     18.9481      8.3016     14.7624
C      4.2786      5.9386      6.3881
C      2.0112      4.9678      2.4240
C      6.2787      5.6772     -0.1775
C      5.4722      7.4889      4.1161
C      8.2819      6.4932      0.5189
C      4.1207      4.9563      7.4468
C      1.7290      5.1772      1.0270
H     -2.7992      5.5335      6.0442
C      6.2404      6.7166      5.3422
H      0.7870      1.4300      5.7374
H     -2.2406      4.8680      1.2295
H      0.7867      1.2865      0.7584
C      7.2967      5.4495      0.9198
O      7.3805      7.1136      5.5197
H      8.4637      8.9386     11.5951
H     20.1369     10.6181     14.3062
H      0.3634      3.0360      3.1731
H     -2.6918     11.6714      1.6612
H      2.8100      4.4072     -0.5522
H      4.4835      5.5173      3.7803
C     12.7946      7.8223     11.8334
C     15.7472      6.2174     15.7771
H      2.0337      6.0304      9.3914
C     -2.0656      4.5797      4.8615
C      0.2323      7.0596      5.1895
H     17.7630      8.2385     20.7382
H      2.3661      1.8922      4.3005
C      1.2201      5.9208      4.6985
H    -10.7124     11.6439      9.5142
H      2.1312     -0.7975      2.1529
H     -0.0650      7.9227      8.5552
C     -3.8926      6.2485      8.3147
C     -8.7043     14.1407      8.5456
C      6.4396      7.6452      3.1083
C     -3.5001      9.6499      5.7370
C     -0.2378      6.2065      2.8042
C     -1.5801      6.3323      3.4966
H      2.1327      2.9960     -0.3318
H      5.0604      5.3684     -1.4372
H     -1.9536      3.2653      6.5040
C    -10.6908     14.1828      9.1085
H     -1.1712      9.4094      6.9345
C      0.7132      5.2318      3.4925
C      5.4576      3.3403      2.4566
H      1.0012      4.3204      7.6660
H     -6.5509      8.9464      7.1126
C      7.2587      3.9869      9.7270
H     -2.8630     12.4019      8.1568
H     -6.1840     10.6748      6.4723
C      2.2680      6.8883      8.6343
C     -1.7504      5.6236      5.7242
C      2.7608     -0.0542      2.7691
C      0.7478      4.8956      5.8660
C      2.1473      6.4331      7.0844
C      1.8434      4.0943     -0.1715
H     -1.5194      5.7588      1.2846
H      4.2886      1.2012      2.3965
H     -1.8446      8.1018      9.8963
H      3.4868      2.0110     -0.0956
H     -3.5701      6.4704      7.3770
H      6.4561      0.6910      3.4069
C     -0.3862      9.1870      4.9576
C     -3.5639      6.9912      9.4509
H      3.9465      6.0684     -0.3310
H     -3.6340      9.5230      2.9408
C     -4.4715     11.4353      7.9531
H     -3.1409      3.4674      2.0717
H     -4.2571      9.0674      6.3100
C     -0.0631      7.9131      7.3174
C      0.5543      3.5956      5.0845
O      8.6090      5.4916      3.9957
C     -1.5372      8.1949      5.4629
C     -6.8327     14.4354      7.1933
C      5.1275      1.7061      6.3474
C      2.8591      0.7717      6.2992
H     -8.6410     16.1644      8.6423
H     -6.3169     12.2801      9.5393
H      0.6049     10.8313      5.5154
H     18.6825     12.1235     18.2668
C      1.8613      4.8980      6.9217
H     -0.0343      4.1889      1.3701
C      3.8860      5.4726      4.8585
C     -9.5483     16.0312      9.0465
H     21.5520      9.4762     14.5795
H     -0.1085      5.4719     -0.2529
C      8.4711      7.0345     10.6277
H    -10.6749     16.6647     10.9569
H     11.5840      6.0579     12.2311
C      4.2763      2.8754      4.2913
C     17.7597      9.9884     18.9669
C     -6.5298     12.8905      8.7675
C     -5.7256      9.1279      7.9171
C      5.5512      4.1958      7.8931
C     -7.2974     14.2478      8.4155
H     -0.2638      5.3615      6.1861
H     -2.5214     10.5366     -0.3579
H      9.9244      5.5103      0.8024
C     14.1699     10.1488     14.3302
H     -9.8742     17.8516     10.2039
H     -2.1420      9.6361      3.5763
