266

C     19.6321      8.7647     13.7900
N     -1.6769     10.4490      2.1416
C      4.0025      1.6409      7.0377
C      2.0107      2.5257      1.6392
C      7.4954      4.8908      2.3976
H     -3.1600      7.0927      2.0207
C      7.1923      3.6382      3.0047
C      2.9921      3.8322      5.4265
C     15.9611      7.0798     19.4892
C      5.9742      1.8427      3.9728
C     -7.1665      8.6472      9.4881
C     13.7642      8.7290     13.6863
N     -0.1839      2.6563      6.2878
C      0.3447      5.9004      0.5521
O     -1.3443      2.8114      0.6510
C      2.8486      4.0351      7.0009
C     15.5590      6.1058     17.5189
C     15.9999     10.1546     16.6121
H    -11.4401     13.8738     10.1193
H     -3.7338      3.4238      5.1450
H     17.0198      5.9613     14.6981
C     16.9906      8.8987     16.1507
H     -8.7286      8.0183     10.3818
H     -6.8400      8.9370     10.6041
H      7.7887      2.9604      3.7026
H     12.9691      6.9176     11.2113
H     -1.1379      5.2337      6.4307
H      8.5699      2.5411      9.8981
C      3.0743      2.6258      7.6273
H      7.0412      1.4999      4.2489
O     14.1770     10.7569     14.6757
C     -5.0356     12.9004      8.3395
C      6.8742      5.8879      9.6325
H      2.9594      6.6886      9.3892
C      6.0128      3.1901      3.3866
H      6.3183      4.9516      7.2393
H     -8.0678      6.8140      8.4209
C     17.0779     10.9170     17.3242
C     -3.1965      8.3402      4.8461
O      1.7258      8.6030      4.7489
C     -1.7424      8.1939      6.7224
C      8.4839      8.5191     11.8195
C     20.4157      8.0456     12.8645
C      6.6363      6.9264     -0.6864
H      5.3436      4.2282      2.0447
H     17.4829     10.1485     14.2990
H      1.8767     -1.1352      3.2629
H     -6.0768      7.1694      8.5131
C      7.6836      3.1241      9.6108
C      7.0496      6.7940     10.8036
C      7.9645      5.9249      3.3274
H      8.2234      7.2080      1.7743
C     -1.1532      6.8067      4.9294
H     16.1393      8.5593     21.0551
H      2.4844     -0.3832      1.9331
H     15.6267      7.1900     13.4721
C     -3.1624     11.7117      6.9219
C      5.9970      4.8061      9.2850
O      5.2546      3.1606     10.6122
C     15.8107      7.4624     18.0565
C      4.8931      5.4769     -0.0190
C     17.6056      9.0868     14.8952
H     -3.5727      7.3071      4.7039
H      7.7395      7.7799      4.0979
H     -8.4003     14.0006     10.5637
H     -6.3162     12.0410      9.8293
H     17.5714     13.1921     17.3666
C      0.1687      3.5302      8.6968
H     20.4835     10.9461     14.2257
C     13.0743      8.6289     12.3443
C      1.7402      1.9356      7.8079
H     -1.8629      7.5915      9.6336
C     -0.7888      6.1823      1.3976
H      5.5861      7.4134     -0.9097
C      9.9979      7.8714     12.2874
O     15.7055     10.4036     13.0273
C     -6.4087      8.6847      8.4504
C     16.8915      8.2327     20.3481
C     -9.3845     14.3478      9.6359
C      2.6937      1.5687      4.7657
H     -1.5520     11.2207      1.7062
H     -6.9358     11.9800      6.9896
H     -9.4442     16.6601     10.7974
C      3.6386      3.3379      3.3156
H     -4.2918      8.7729      6.5702
C     -2.1161      8.5579      0.7297
C     11.1026      7.3238     11.4893
H     -1.8849     10.4876      5.4434
C      5.0636      2.5034      5.1248
H      3.8986      0.3941      5.5661
H     -1.1888      2.0420      0.2022
C    -10.2431     12.2995      8.4179
C     -8.1141     10.8936      8.3068
C     -2.4944      5.2378      3.4725
C     16.6373      9.3320     19.3439
C      2.3243      3.4268      2.7408
C     -8.2282      7.5041      9.5140
H     15.9782      9.0276     14.2258
H      8.1881      5.3414      5.0580
H      2.6480      5.0464     -0.6401
O      5.4790      6.3900      6.7507
C      0.4965      8.1510      4.2553
H     -8.7420     10.6005      7.4340
C     -3.4692      9.0495      3.4540
C     -2.4365      7.7053      2.8144
H     -6.2434      8.0121      7.6083
C     -2.8180      7.9053      7.4696
H      2.1337      3.4586      5.0084
H     14.0512      8.5193     10.5072
H      4.7127      3.8127      1.3058
H     -0.3131      4.4493      8.2798
C      3.0780      1.4599      1.3577
C      0.0901      8.4985      1.9487
O      4.7547      3.8112      0.2391
O      7.0843      4.3706     11.7430
C     -0.3949      2.9959      1.6170
C     -0.3544      4.0422      4.2749
C     -5.4379     10.7578      7.5772
H     -3.5108      7.3367      7.1954
H     15.7314      9.3696     19.0151
H     -1.3206      9.9053      4.2260
H      0.3462      6.7644     -0.1822
O      0.2142      9.9245      5.6935
C     -6.8021     11.5170      7.9124
C      0.3701      7.2260      6.8021
C     15.2042      7.9327     14.1118
C      0.4812      7.4825      2.9873
H     -4.5067     13.6375      8.8241
C      2.2640      0.4579      3.6524
C      0.3121      2.3172      7.6902
C     -2.7661     10.6963      6.0850
C     -2.7224      3.4550      5.1590
C     17.7313     12.0714     17.2853
C     -9.9128     16.8356      9.9071
C      0.6311      2.2864      1.5122
C     -1.1813      7.6468      1.4747
C     -8.8465     12.1152      8.4191
N      1.7285     -0.6292      4.1385
C      3.6593      1.4017     -0.0365
O     16.9811      6.0002     15.6784
C      9.2559      6.6911     -0.2794
H     18.6100     10.1554     18.7982
H     -0.3417      1.3990      7.8872
C     -2.9331      4.7243      2.2059
C     -2.9669      7.7836      8.8049
H      7.9749      3.3192      8.6720
H      7.9595      4.1673     11.8882
H     -5.0570     10.1124      9.5759
C     -2.0492      9.8110      0.6376
H     -8.0851      6.7657     10.4400
H      1.8001      8.1743      9.0692
H     -0.0426      9.4282      2.4686
H     14.4053     10.2029     11.7280
H      4.1832      0.5983     -0.0958
H      1.1978      3.6018      9.1502
C     14.9184      7.3710     15.4598
H      2.9136      1.6885     -1.0501
C     13.9007      9.2172     11.3434
H      5.1254      2.9453     11.6454
H     14.9654     10.3430     17.1183
C      4.2268      8.1182      4.3867
C      7.5638      7.1877      3.1883
C     20.8086      9.7193     14.3228
C     18.5362      8.1365     14.6060
C      4.0779      5.8018      6.4394
C      1.5344      4.7438      2.7438
C      6.2415      5.8745      0.0987
C      5.6861      7.6293      4.4560
C      8.2698      6.9691      0.6619
C      3.9964      4.8313      7.6459
C      1.3814      5.2531      1.2166
H     -3.0128      5.9152      6.1146
C      6.3371      6.7898      5.4303
H     -3.1561      5.3719      1.4224
H      0.2884      1.2726      1.0589
C      7.2543      5.6085      1.2055
H     -0.3933      3.2132      3.5397
O      7.6933      7.1190      5.8862
H      8.2751      9.5728     11.8295
H     20.9211      9.9196     15.3482
H      1.9857      2.7522      3.3574
H     -1.0472     10.1060      2.8606
H      3.0271      4.2551      1.0489
H      4.7076      5.1245      4.5978
C     12.2801      7.4495     12.0082
H      6.4971      5.8009      4.8475
C     15.5404      5.9684     16.0312
H      1.0678      6.6131      9.6614
C     -1.7671      4.5050      4.6879
C      0.2104      6.9281      5.3102
H     18.0245      7.6222     20.0505
H      1.7878      2.0633      4.8103
C      1.1028      5.7259      4.9768
H      1.1639      0.7213      2.1294
H     15.9836     10.3908     15.5288
H     -0.3710      8.2306      8.5727
C     -5.1016      6.4239      8.6054
C     -8.5355     13.7147      8.5068
C      6.1250      7.4496      3.0844
C     -3.6538      9.4140      5.9477
C     -0.2701      6.1905      2.8432
C     -1.7428      6.5227      3.4846
H      4.1646      5.6753     -0.9849
H     -2.7171      2.6567      5.7486
C    -10.8198     13.6286      9.1387
C      0.3608      5.1629      3.7589
C      4.7472      3.8931      2.9378
H      1.0942      4.6400      8.1073
H     -4.1737      9.1918      8.4822
C      6.5826      3.7404     10.3617
H     -2.4552     12.3005      7.3040
H     -5.2646     10.1823      6.7730
C      1.8869      6.8885      8.9817
C     -1.8266      5.5995      5.6204
C      2.2010      0.5119      2.2432
C      0.8263      4.9335      6.1842
C      1.9034      6.5509      7.4285
C      2.3116      4.5690      0.3575
H     -1.5155      5.3317      1.7090
H      4.0269      1.6087      2.0691
H      4.4443      1.9854      0.0984
H     -5.2788      6.0483      7.5732
H      7.1702      2.1493      9.1039
H      5.3169      1.1194      3.3723
C     -0.5746      9.1484      4.7477
C     -4.2125      7.2114      9.2323
H      3.8443      6.1113      0.4998
H     -4.4453      8.8746      3.3553
C     -4.5237     11.8125      7.5835
H     -3.8230      3.9796      2.3275
H     -4.6807      9.6715      5.3191
H     -6.8890     14.5535      9.1963
C     -0.4157      8.1083      7.4022
C      0.2101      3.7760      5.6769
O      8.7766      5.6836      4.3325
C     -1.6718      8.1731      5.3177
C     -6.6627     14.1375      6.9391
C      5.3009      2.1014      6.3814
C      3.1019      0.9611      5.9900
H      8.5551      7.0026      5.6858
H     -5.7595     14.5219      7.1176
H      5.4276      3.0926      8.3336
H      0.7760      9.1474      5.5724
H     18.5872     11.9057     17.8095
C      1.6541      5.0732      7.3087
H     -0.2704      4.1481      1.7735
C      3.7583      5.1812      5.1662
C     -9.5343     15.7815      9.1657
H     21.5430      9.5725     13.6752
C      8.1933      7.6617     10.5841
H      3.6564      5.3837      8.5021
H     10.7927      6.5642     10.9254
H     -6.2050     13.5243      6.2103
C      3.6406      2.7164      4.6949
C     17.5235     10.2216     18.6882
C     -6.3072     12.5488      8.8248
C     -5.3753      9.5820      8.5871
C      5.5395      4.2555      7.9202
C     -7.0283     13.6755      8.4900
H     -0.2984      3.6676      9.6464
H     19.0139      9.5509     13.0155
H      9.3196      5.8145      0.0412
H     -0.1840      1.6643      5.9850
C     14.6122     10.0682     13.6704
H    -10.4007     17.7602      9.6712
H     -2.9440     10.0948      3.0914
