265

C     19.9769      9.1262     13.9205
C      3.7529      1.4939      6.9959
C      2.0229      3.0224      1.2650
C      7.1541      4.8311      2.3621
H     -3.0685      3.5620      2.7180
C      7.1061      3.4801      2.6565
C      3.2630      4.0719      5.5681
C      6.8145      9.8341     10.2824
C     15.8826      7.2314     19.5467
C      6.0744      1.8150      4.0121
C      6.4285      8.4483      9.6825
C     13.7765      8.6442     13.7333
N     -0.4872      2.9008      6.7993
C     13.2373     -7.0194      0.6343
O     -1.2588      2.0747      2.0517
C      3.1805      3.9923      7.0792
C     15.5010      6.2605     17.4336
C     16.6249     10.8233     16.7256
H      1.0267      1.0042      9.5121
H     -3.7399      3.6931      4.9953
H     17.7045      6.8994     16.1421
H      6.5284     12.1116     10.3992
C     16.8870      9.3164     16.2557
H      7.7514     10.0021      9.7560
H      7.8363      3.2241      3.5343
H     12.6544      7.2994     10.1067
H     -1.6814      5.2108      6.5518
C      2.8134      2.6769      7.6514
H      9.8245     -2.4134      0.3051
O     14.6589     10.1357     15.3430
C      8.1215     -0.3284      8.7937
C      6.7003      6.0345      9.7250
H     16.1070     -5.9554      8.6511
C      6.1044      2.4852      2.4948
H      6.3043      5.8111      7.1415
H      7.1360      9.6595     11.3841
H      5.0867     -2.7660      8.6142
H      4.6625      7.2392      9.1547
C     17.5256     10.8458     17.7254
C     10.1165     -4.1771      4.8830
O     14.7087     -4.2881      4.8400
C     11.2402     -5.2285      6.9724
C      8.8740      8.1020     11.9705
C     20.4310      8.0211     13.0119
C      6.3973      7.2890     -0.6534
H      5.1883      4.3120      1.6177
H     17.5578     10.3496     14.7094
H      1.4032     -0.3962      3.1878
H      7.6091     -6.6677      7.7199
C      6.7817      7.1317     10.6628
C      7.7555      5.7774      3.3092
H     21.4579      9.1366     15.4741
C     -1.3365      6.6637      4.9375
H     15.2645      8.8409     20.8329
H      4.2548      0.6798      2.2965
H      5.0517     11.3930      9.7504
H     14.9771      6.6506     13.6529
C      9.6785     -1.0745      6.9313
C      5.7639      5.1950      9.3176
C     15.7235      7.5497     18.1487
C      4.5981      6.5888      0.8252
C     17.7610      9.3474     15.0553
H      9.3991     -4.8588      5.0768
H      8.7255      7.7551      3.3144
H      3.2607      1.2163     10.3203
H      6.4615     -0.0128      9.5675
H     17.2812     12.8754     17.4807
C      0.0637      4.0080      8.8939
C     13.5205      8.3327     12.1251
C      1.6098      1.9050      7.6011
C     12.0876     -6.6279      1.3481
H      5.7109      8.0618     -0.7510
H     -3.1266      2.8312      3.6396
H      5.2278     11.0963     11.3519
C     10.0995      7.6641     12.8180
O     14.8621     10.8710     13.3826
C      6.8433     -4.4584      7.9871
C     16.0731      8.5921     20.2487
C      3.1857      1.3995      9.3774
C      3.3320      1.6678      4.5173
H     11.0438     -3.3374      1.9215
H      5.3633     -0.6626      6.6150
C      3.8509      3.4594      3.0654
H      9.2656     -3.4366      6.5449
C     10.8530     -4.2915      0.5838
C     11.0836      7.2618     11.6607
H     10.9616     -2.8168      7.4478
C      5.4852      2.6390      5.1029
H     18.9407     12.6576     17.8508
H      8.8411      0.6849      8.8872
C      2.2795     -0.5983      8.7332
C      4.6786     -1.6632      8.1204
C     -2.0054      5.1171      3.4044
C     16.3763      9.6814     19.3121
C      2.4585      3.6254      2.5936
C      4.9283      8.1267      9.7833
H      2.2342     -0.9928      9.7820
H     16.0114      8.0369     13.3478
H     -3.0260      5.1169      1.5160
H     14.9038     -9.4744     -0.6085
O      5.4520      7.2901      6.4899
C     13.5158     -4.9328      4.3920
H     16.2970     10.5864     19.7502
C     10.4531     -4.2028      3.4832
C     10.8573     -5.2455      2.8151
H      5.6752     -4.3806      7.7235
C     10.0972     -5.1608      7.6140
H      1.1512      2.4305      5.0561
H     15.1074      7.9005     10.5391
H      6.8402      1.5952      1.8665
H      1.1602      4.0524      9.1469
C      3.1994      2.0867      1.0117
C     12.8868     -4.3552      2.0608
C     -0.2344      2.9498      1.9979
C     -0.2787      3.8970      4.2037
C      7.1525     -1.7997      7.0003
H      1.4759      0.2541      4.8175
H      9.2169     -4.8977      6.8846
H     15.4844      9.7959     18.7148
H     13.4034     -6.8648     -0.5405
O     13.0668     -3.5484      6.3621
C      5.9737     -1.0821      7.5481
C     13.5309     -6.0100      6.8473
C     15.0649      7.9519     13.9622
H     16.1835      9.0700     15.5768
C     13.5642     -5.3247      2.9662
H      8.3120     -0.2834     10.0163
C      2.6418      1.3414      3.4047
C      0.1868      2.6131      7.9740
C     10.6385     -2.1882      6.6847
C     -2.7685      3.0177      4.7217
C     18.1406     12.0106     17.5945
C      2.9328      3.9702      9.7767
C      0.7799      2.3422      1.2808
C     11.7073     -5.1103      1.5175
C      3.6768     -0.7493      8.4004
N      1.8660      0.2594      3.7701
H      2.9628      2.3695     -0.8761
C      3.1861      1.4213     -0.4093
O     17.1610      6.1525     15.8972
C      9.5435      6.5607      0.7169
H     18.5760      9.3581     19.3327
C     -2.7937      4.6210      2.3882
C     10.0173     -4.9839      8.9936
H      7.0242      4.5986      0.3391
H      7.5146     -3.9448      6.3741
C     10.6729     -2.9409      0.7913
H      4.6866      8.9981      9.2790
H     14.1724     -6.2731      9.1151
H     12.2452     -3.4515      4.3652
H     15.3999      8.7454     12.2099
H      2.2795      0.7558     -0.7344
H     -0.2740      3.5101      9.6371
C     15.1016      7.4846     15.3357
H      5.3675      4.6973     10.2007
C     14.6979      8.2136     11.5738
C      6.0473     11.0366     10.6235
H      3.2694      4.2014     10.7083
H     15.5279     11.0310     17.3539
C      4.5194      8.4616      4.5828
C      7.7714      7.1024      2.7757
C     20.9078      9.8225     14.6738
C     19.0069      8.8037     14.9748
C      4.1771      6.2547      6.4107
C      1.8361      4.9902      2.4861
C      5.7588      6.0153      0.3060
C      5.7672      7.6616      4.2822
C      8.0419      6.9091      1.2155
C      4.3002      5.0953      7.4274
C     14.3094     -7.6864      1.0884
C      6.3129      6.8253      5.4787
H      9.8440      5.8650     -0.0138
H      0.9131      1.3982      1.9641
C      7.0608      5.5592      0.9398
H     -0.6061      3.1245      3.4485
H     10.6055     -4.5935      9.9429
O      7.5373      6.7040      5.7941
H      8.8635      9.3384     11.8136
H      1.7872      2.9294      3.3907
H     12.9797     -3.1667      2.5027
H     16.0913     -8.8307      0.3493
H      4.5085      5.3032      4.2515
C     12.4546      7.6637     11.3171
C     15.7783      6.1758     16.0673
H     14.7057     -7.4134      9.2729
C     -1.8553      4.2962      4.5678
C      0.3821      6.6712      5.3283
H      4.7253      8.3214     10.9017
H      2.7403     -0.0162      5.9646
C      1.1590      5.5611      4.8028
H      2.7196      0.2312      1.3531
H     16.6199     11.5477     15.9409
H     12.4555     -5.8188      8.5652
C      7.8602     -6.6651      8.7925
C      3.9969      0.6301      8.3655
O      5.9363      3.9486      5.2919
C      6.5263      7.7136      3.0726
C      9.7995     -3.0136      5.8294
C     12.6212     -6.7804      2.7935
C     -1.5613      6.5732      3.5133
H     16.8786      8.5885     20.8343
H      4.4125      7.7831      1.0866
C      1.9671      1.1068      8.8283
C      0.5886      4.9973      3.4428
C      4.9943      3.4124      2.5229
H     14.2873     -8.2032      7.6763
H      8.2640     -4.2338      9.6061
H      7.7779      4.8010      4.5783
H     10.2061     -0.1198      7.6994
H      6.8423     -1.3821      5.9921
C     15.2110     -6.5173      8.7530
C     -2.0340      5.5112      5.5279
C      3.2318      0.9516      2.0049
C      1.5371      4.4109      5.6929
C     14.8619     -6.4716      7.2653
C     15.0734     -8.8878      0.3469
H     11.5721     -7.7786      1.2145
H      4.2485      2.4450      1.0866
H      3.9567      0.9735     -1.1518
H     11.4404     -1.7300      6.0600
H      5.1225      1.1348      3.9330
C     12.5697     -4.1743      5.1441
C      8.7767     -5.5207      9.4413
H      3.8949      5.9418      0.9383
H     21.7069      9.7259     13.7996
C      8.4188     -1.3320      7.6765
H     10.0887      6.6983      1.8572
H      9.2719     -2.3448      5.3046
H      5.7001      1.7409      9.3860
C     12.3941     -5.8231      7.4859
C      0.6165      3.3594      5.2950
O      8.5945      5.0554      4.1018
C     11.2052     -4.8899      5.5393
C      6.0732      1.9883      7.3606
C      5.1588      2.1096      6.4674
C      3.2571      1.0387      5.7397
H      6.9955     -5.3981      7.6399
H      5.8981      3.9383      7.5589
H      8.3511     -2.9632      8.2020
H     12.2149     -3.1927      6.4950
H      2.0485     -1.2751      7.8388
C     15.0148     -7.9519      6.9211
H     -0.7140      3.7371      1.4304
C      3.8641      5.4267      5.1845
C      3.3255      2.8517      9.1251
H     20.3318     10.6945     14.9204
C      8.3553      6.9883     11.0466
H      3.6972      5.5735      8.0519
H     10.2764      6.7226     10.9963
H      7.1330      1.7860      7.4561
C      3.7658      3.1451      4.5611
C     17.6870      9.4909     18.3988
C      6.5439      0.1240      8.3341
C      7.6321     -3.3304      7.3132
C      5.7832      5.0088      7.6771
C      5.5047      1.1040      8.2265
H     -0.4033      4.7981      8.4740
H      9.4914     -4.1316      8.5816
H      0.5093      1.6891      0.5287
H      9.2501     -0.8313      5.8905
H     19.1984      9.9068     13.2193
H      8.5142      6.2590     11.9144
H     -1.3533      3.6296      6.9791
C     14.3167     10.0388     13.9852
H     10.7607     -3.2676      3.3028
