262

C     20.1877      8.9485     14.2049
N     -1.8613     10.4538      1.4661
C      3.9406      1.7490      7.0747
C      1.9810      2.7689      1.4919
C      7.1371      5.1523      2.5621
H     -3.2357      3.7836      2.5835
C      7.0242      3.8844      3.0933
C      3.4839      3.9478      5.3280
C     -6.3310      9.6811     10.9560
C     16.0885      7.2454     19.5074
C      6.1006      1.6060      3.8961
C     -7.0231      8.7597     10.1370
C     13.6403      8.6951     13.7656
N     -0.1985      2.5267      6.1203
C      0.3490      5.8357      0.7549
O     -1.4992      2.8602      1.2181
C      3.0882      4.0728      6.7675
C     15.6728      6.1984     17.5062
C     16.6726     10.4244     16.5268
H    -11.9147     13.8163      9.0599
H     -3.4184      3.2927      4.0322
H     17.6213      5.8534     16.3250
H     -6.8436     11.5842     12.4171
C     17.1193      9.0451     16.1791
H     -8.8866      7.5445     10.8706
H     -5.7334     10.2928     10.2015
H      7.8326      3.4875      4.0173
H     13.3251      7.3241     10.7528
H     -0.8282      5.2786      6.8642
C      2.7434      2.6870      7.5426
H      6.8347      0.6549      3.9292
O     14.3539     10.1459     15.4050
C     -4.7611     13.0573      8.9207
C      6.6609      5.8280      9.8527
H      2.3452      0.1529      6.0408
H      1.0672      7.0087      9.4296
C      6.1588      2.5784      2.7249
H      5.8801      5.0343      7.6880
H     -5.7893      9.3013     11.8437
H     -8.0736     11.1997      9.5035
H     -8.2204      6.8852      9.4225
C     17.7669     10.6352     17.5155
C     -2.8671      8.1749      5.0933
O      1.9322      8.7722      5.0002
C     -1.5494      8.1796      7.1241
C      8.9059      8.2269     12.1284
C     20.8247      7.8702     13.0721
C      6.4569      7.3684     -0.5350
H      4.8282      3.5889      1.1982
H     18.2297     10.0409     14.7619
H      1.7758     -0.9674      2.9450
H     -5.3342      5.7909      8.1113
H     14.0226      9.2812     15.6664
C      7.0259      6.5622     11.1463
C      8.2181      5.8904      3.3875
H      8.3053      7.0278      1.9596
C     -1.1046      6.8044      5.4159
H     15.8870      8.3854     21.4450
H      2.6691     -0.2834      1.1019
H     -7.9803     11.3061     11.6619
H     15.5039      7.2393     13.3184
C     -3.0048     11.4335      7.2667
C      5.5080      5.3341      9.6772
C     15.9640      7.6298     17.9924
C      4.5107      5.9577      0.3950
C     17.8869      9.0845     15.0250
H     -3.3451      6.9128      5.3849
H      8.3466      7.9395      4.3238
H     -9.9472     14.1528     10.5461
H     17.9285     12.3565     16.4001
C     -0.6005      3.2040      8.1915
C     13.2132      8.6245     12.3291
C      1.5673      1.7286      7.3530
H     -2.4233      7.6002      9.8593
C     -0.5965      6.1131      1.8054
H      5.8590      8.4703     -0.4300
H     -2.2652      1.9273      4.7492
H     -7.8668     10.0308     12.5159
C     10.1833      7.5216     12.5599
O     14.3354     11.1622     13.4582
C     -6.2450      8.6213      8.8118
C     16.7457      8.2699     20.4758
C     -9.8484     14.2823      9.4533
C      2.9358      1.5494      4.6178
H     -0.9742     10.8970      1.3911
H     -2.6039      9.8719     -0.4288
H     -8.9246     16.1302     10.9985
C      3.8183      3.0825      3.0987
H     -4.0031      8.9676      6.7958
C     -1.9401      8.2523      0.6389
C     11.3407      7.1349     11.1180
C      5.2998      2.2255      4.8765
H      4.3302      0.1848      5.8876
H     -4.3171     13.9729      8.6958
C    -10.5248     12.3092      8.4052
C     -8.1172     11.3796      8.5715
C     -2.0861      5.2059      3.8961
C     16.8213      9.7314     19.7437
C      2.4423      3.5492      2.6756
C     -7.8817      7.6196     10.4108
H     15.6829      8.7275     13.5640
H     -3.4802      5.4379      2.0703
H      1.8465      3.7559     -0.6990
O      5.7275      6.3210      6.7377
C      0.6827      8.0573      4.4604
H     -8.5634     10.3790      8.0872
C     -2.6599      8.5633      3.7079
C     -2.0588      7.5552      3.0391
H     -6.7869      9.5493      8.4252
C     -2.8225      7.6883      7.7245
H      2.3599      4.1022      4.8893
H     14.0329      8.8398     10.5185
H      6.5367      2.0400      1.8138
C      3.0454      1.6880      0.9753
C     -0.0646      8.4769      2.1308
C     -0.3515      3.0184      1.6805
C     -0.1320      3.9272      4.1531
C     -5.4245     10.8731      8.0616
H     15.9346     10.3654     19.7383
H      0.2704      6.5302     -0.0998
O      0.0997      9.7665      6.0789
C     -6.9051     11.7162      8.0179
C      0.5595      7.1436      7.1570
C     15.0396      8.0333     13.9130
H     15.3262      8.3488     16.0538
C      0.6030      7.5262      3.0271
H     -4.4021     12.8342      9.8119
C      2.6574      0.7168      3.4578
C      0.0951      2.3709      7.3569
C     -2.6710     10.4207      6.3787
C     -2.4525      2.9924      4.6902
C     18.1551     11.9658     17.5043
C     -9.3830     16.7199      9.9273
C      0.6871      2.5206      1.0939
C     -1.3786      7.5936      1.7482
C     -9.1253     12.4037      8.2624
N      2.1639     -0.4761      3.7449
H      3.5124      2.0844     -1.3032
C      2.7369      1.5835     -0.6721
O     17.0531      6.4193     15.7442
C      9.7670      6.3730      0.3286
H     18.6949      9.4099     19.3890
H     -0.7230      1.6079      7.5633
C     -2.6265      4.7680      2.5365
C     -3.0989      7.6569      9.1009
H      1.4492      0.9097      6.4566
H      7.6090      4.5948      0.8120
H     -4.1395      8.9628      8.0822
C     -2.2492      9.6020      0.4574
H      5.2379      5.1233     10.7305
H      1.8903      5.5295      9.3085
H     -1.2361      9.0260      4.1221
H     14.8488      9.9690     11.9262
H      1.7974      1.6837     -1.2104
H     -1.0684      2.6882      8.9946
C     14.9196      7.6116     15.5201
H     -1.4108      9.9042      2.1550
C     14.3584      9.1113     11.4926
C     -7.1246     10.7707     11.7256
H     15.4937     10.4655     16.9533
C      4.2553      8.2428      4.5249
C      7.8830      7.2531      3.5606
C     21.4758      9.4339     14.8195
C     19.1313      8.3752     15.1088
C      4.3805      6.0184      6.3913
C      2.0704      5.1342      2.5013
C      5.9174      6.2148      0.3182
C      5.5107      7.5518      4.5700
C      8.3181      6.6650      0.6909
C      4.0586      5.0372      7.5025
C      1.4129      5.2621      1.1083
H     -2.4488      5.3777      6.8435
C      6.4220      6.8781      5.5695
H     10.2548      5.4127      0.3232
H      0.2681      1.6459      0.1667
C      7.2143      5.5857      0.9921
H     -0.6222      3.2245      3.3108
O      7.3904      7.3458      6.0316
H      8.5902      9.0609     11.5668
H     22.4532      9.3074     14.1555
H      2.0541      2.9001      3.3425
H     -0.5046      9.4695      2.6143
H      2.9133      4.9827     -0.7605
C     12.5388      7.7131     11.4506
C     15.6688      6.3501     16.0673
H      2.9513      6.5659      9.3394
C     -1.4492      4.3661      4.8807
C      0.4707      6.8268      5.3342
H     17.8418      7.9633     20.7480
H      1.7427      2.0056      4.9977
C      1.2838      5.7432      4.8750
H    -11.1556     11.7270      7.6953
H      1.4518      1.0610      1.8396
H     16.5857     11.1084     15.7642
H     -0.3822      7.5794      9.1267
C     -5.2520      6.3262      8.9522
C     -8.7031     13.7690      8.4084
C      6.5982      7.7039      3.3375
C     -3.6947      9.3622      5.7264
C     -0.1119      6.1919      3.1007
C     -1.3062      6.3231      3.9191
H      3.9558      6.5251     -0.2616
H     -3.1113      2.9414      5.9101
C    -10.9433     13.6347      8.6241
C      0.8923      5.2090      3.5862
C      4.8653      3.0190      2.2962
H      1.0934      4.2102      7.6621
H     -2.3563     12.3494      7.5050
H     -5.3325     11.0369      6.9643
C      1.9603      6.5317      8.9532
C     -1.5379      5.4609      6.0672
C      2.6075      0.6396      1.9391
C      1.0977      4.6029      5.7649
C      1.9717      6.4442      7.4950
C      2.4678      4.4642      0.0974
H     -1.5822      5.4820      1.5930
H      4.0940      1.8322      0.8695
H      2.9718      0.4486     -1.0309
H      5.3200      0.8949      3.3316
C     -0.4860      8.9387      4.9878
C     -4.2602      7.0886      9.6264
H      4.0154      5.2313      1.0573
H     21.9240     10.3946     14.5982
C     -4.0887     11.7299      8.2267
H      9.9402      6.7628      1.3083
H     -4.3329     10.2021      5.3400
H     -7.2393     14.9479      9.2252
C     -0.3131      7.7736      7.9761
C      0.3949      3.4184      5.3783
O      8.8867      5.3939      4.6504
C     -1.5564      8.1460      5.7453
C     -6.5603     14.3965      7.0952
C      5.3792      2.3154      6.2986
C      3.3933      0.8447      5.8747
H      8.2236      4.5112      5.3129
H     -5.7451     14.9375      6.9797
H      5.3009      3.3002      8.1306
H     -4.3591      9.2435      9.2482
H      0.3371      8.9076      6.6347
H     19.0773     12.5569     17.9986
C      1.8475      5.0576      6.9265
H     -0.0560      3.9065      2.2112
C      4.2569      5.4035      5.0417
C     -9.8678     15.7655      9.1369
H     21.6696      8.8345     15.8709
C      8.3017      7.1146     11.0043
H      3.4037      5.5783      8.2443
H     11.2329      6.3132     10.2983
H     -6.7476     13.3932      6.7253
C      3.8202      2.8355      4.4875
C     17.6833      9.8875     18.7873
C     -6.4635     12.8719      8.8017
C     -5.1286      9.5556      8.2596
C      5.2373      4.3694      8.2727
C     -7.1459     14.2405      8.5602
H     -1.1352      3.7586      7.5117
H      3.2634      3.7864      0.7800
H     19.5739      9.8529     13.8197
H      7.1811      5.6200     11.7789
H     -1.2068      2.5974      6.2667
C     14.1588     10.1262     14.1601
H     -9.6465     17.5950      9.5217
262

C     20.2251      8.9359     14.0647
N     -1.4504     10.6797      1.4430
C      3.8723      1.4743      7.0528
C      2.1370      2.6592      1.5961
C      7.4950      5.0967      2.4857
H     -2.0902      3.6801      2.3848
C      7.1330      4.0221      3.1012
C      3.6172      4.0132      5.4688
C     -6.5486      9.9106     10.7898
C     15.9726      7.2022     19.5849
C      6.1220      1.8724      4.0196
C     -7.1818      8.6716     10.0958
C     13.8578      8.6951     13.8089
N      0.0106      2.5647      6.1454
C      0.4246      5.7130      0.5830
O     -1.5316      2.7807      1.4488
C      3.2402      4.0467      7.0763
C     15.6202      6.0925     17.3633
C     16.6766     10.3674     16.8336
H     -3.4264      3.1323      4.0070
H     17.8023      5.7575     15.2890
H     -7.1727     11.5169     12.6564
C     16.9445      8.9342     16.3824
H     -8.4629      7.5374     11.6069
H     -6.5638     10.6427      9.8434
H      7.6303      3.8738      3.9053
H     13.3518      7.4545     10.4152
H     -0.3809      4.8955      6.5480
C      2.8010      2.6263      7.7010
H      7.2093      1.3170      3.9421
O     14.6544     10.4012     15.2763
C     -4.7805     12.8525      8.7413
C      6.6104      5.9903      9.6537
H      1.8303      7.5423      9.5272
C      6.0459      2.9221      2.9166
H      6.3996      4.4840      7.8174
H     -5.7641      9.6825     11.6273
H     -7.7238     11.2538      9.7385
H     -8.3220      7.2889      9.6800
C     17.8004     10.8984     17.7329
C     -2.8341      8.2515      5.1363
O      1.8800      8.6644      5.0250
C     -1.3940      8.0986      7.2790
C      8.9987      7.9632     12.1367
C     20.6946      7.7119     13.0514
C      6.5917      7.2845     -0.6170
H      5.2203      4.2229      1.8513
H     17.7158     10.0967     14.8610
H      1.6718     -0.6740      3.0711
H     -4.9659      5.8354      8.0002
H     13.9750      9.4656     15.4575
C      6.9512      6.3930     11.2757
C      8.0602      5.9276      3.8398
H      8.3438      6.4815      1.8371
C     -1.0644      6.6376      5.4511
H     15.7901      8.5500     21.3342
H      2.8754     -0.5051      1.3039
H     -7.5004     11.3361     10.8198
H     15.6180      7.3971     13.1848
C     -3.1611     11.7689      7.3177
C      5.5615      4.9773      9.7052
C     15.8224      7.4613     18.1029
C      4.4648      6.1761      0.3304
C     17.6222      9.0872     15.2349
H     -3.3173      7.3641      5.3118
H      8.6154      7.8728      4.0668
H     -9.9726     13.9398     10.5709
H     -6.6124     12.6546     10.0290
C     -0.2044      3.5776      8.3788
C     13.3666      8.6120     12.0608
C      1.6760      1.6730      7.5100
H     -2.7734      8.1937     10.1011
C     -0.4295      6.1513      1.7646
H      5.9338      8.2664     -0.6728
H     -2.1794      2.2790      5.0333
H     -8.3285     10.6290     11.7735
C     10.2537      7.3644     12.6465
O     14.2980     11.0758     13.2604
C     -6.7452      8.8589      8.5742
C     16.3684      8.4305     20.3226
C     -9.7319     14.1359      9.4418
C      2.7460      1.6725      4.9375
H     -0.4587     11.0257      1.2715
H     -2.6624     10.0252     -0.4751
H     -7.3784     12.3906      7.1423
H    -10.0028     16.5655     10.9771
C      3.7212      3.3298      3.2827
H     -3.9199      9.1135      6.6872
C     -1.9695      8.2041      0.5570
C     11.4804      7.0379     11.5384
C      5.1432      1.9943      5.0345
H     -4.4562     13.9174      8.4401
C    -10.2716     12.3387      8.2067
C     -7.9145     11.3301      8.7270
C     -1.9743      5.2851      3.7484
C     16.4445      9.5474     19.4350
C      2.2164      3.4269      2.7393
C     -8.0803      7.7179     10.5093
H     16.2020      8.3586     13.9498
H     -3.7059      4.7197      2.3872
H      1.6939      3.9137     -0.2155
O      5.6703      6.4317      6.8027
C      0.5731      8.0565      4.6821
H     -8.0016     10.5882      7.9641
C     -2.6063      8.5617      3.7344
C     -1.9041      7.6378      2.9690
H     -7.2792      9.0557      7.6039
C     -2.6803      7.9465      7.9032
H     14.0323      9.4060     10.2893
H      6.7047      2.4621      1.9027
H      0.0272      4.3217      9.0962
C      3.1335      1.7195      0.9029
C     -0.0575      8.4469      2.1432
C     -0.3301      3.3111      1.4254
C      0.0116      3.9227      4.1582
C     -5.6822     10.9644      7.7108
H     -3.1452      7.3608      7.0125
H     15.5185     10.3564     19.2249
H      0.6501      6.6732      0.0767
O      0.0570      9.7116      5.9240
C     -6.8666     11.8776      8.0566
C      0.5842      7.2730      6.9136
C     15.0653      7.9057     14.0533
C      0.7195      7.5401      3.2289
H     -4.4947     12.8728      9.7686
C      3.1219      0.4484      3.3594
C      0.3118      2.4500      7.6305
C     -2.5478     10.6532      6.5255
C     -2.7187      3.1675      4.9224
C     18.0847     12.2383     17.4965
C     -9.9243     16.7781      9.9743
C      0.7281      2.4064      1.0664
C     -1.1405      7.5613      1.7195
C     -8.8934     12.3293      8.2706
N      2.2381     -0.3872      3.8013
H      3.8046      1.8611     -0.6261
C      2.6666      1.7203     -0.7021
O     17.0990      6.3926     15.7290
C      9.4367      6.1783      0.6278
H     18.6773      9.4371     19.2769
H     -0.5420      1.8078      7.9919
C     -2.5012      4.7606      2.4290
C     -3.2893      7.9050      9.1586
H      1.6134      0.9948      6.7817
H      6.8384      4.3697      0.3981
H     -5.1380      8.9711      7.5647
C     -2.2596      9.5052      0.4918
H      4.5304      5.3674     10.2677
H      1.1370      5.6755      9.4730
H     -0.9866      9.7112      4.3987
H     15.0108     10.0516     11.7488
H      2.0490      2.5166     -1.0663
H     -0.8263      2.8660      8.8198
C     14.9752      7.4509     15.4406
H     -1.8981     10.6750      2.5147
C     14.5191      9.0903     11.3354
C     -7.3959     10.9393     11.7744
H     15.6877     10.2744     17.2268
C      4.2297      7.9955      4.4690
C      7.6339      7.3091      3.6700
C     21.4487      9.0526     14.8659
C     19.0037      8.6241     15.0698
C      4.5478      5.9746      6.5483
C      1.8464      4.9739      2.5575
C      5.9329      6.2709      0.4265
C      5.4303      7.1202      4.3644
C      8.0975      6.3543      0.8711
C      4.2327      5.0553      7.5867
C      1.5700      5.2430      1.1187
H     -2.0288      5.9898      6.6298
C      6.3719      6.8342      5.5665
H      9.5566      5.2272      0.1624
H      0.4796      2.1648      0.0919
C      6.8160      5.2849      1.1155
H     -0.3115      3.1773      3.3434
O      7.5971      7.1302      5.9640
H      8.9877      8.8413     11.3136
H     22.0634      8.0369     14.9766
H      1.3752      3.0278      3.2064
H     -0.5830      9.5849      2.3064
H      2.9470      4.4477     -0.8191
H      4.7958      5.7787      4.5008
C     12.7017      7.5334     11.3580
C     15.6669      6.1952     15.9354
H      2.8921      5.9495      9.0312
C     -1.6081      4.2438      4.8263
C      0.3422      6.8607      5.4176
H     17.4770      8.2925     20.7070
H      1.8515      1.5948      4.4747
C      1.2898      5.7106      4.9106
H    -10.8353     11.3978      8.6176
H      1.4284      0.6224      1.6672
H     16.6394     10.7479     15.8505
H      0.3570      7.9154      8.7519
C     -5.2787      6.3820      8.9402
C     -8.6418     13.6736      8.3014
C      6.2531      7.6391      3.1847
C     -3.5540      9.7430      5.7962
C     -0.1462      6.2437      3.1755
C     -1.2838      6.5239      3.9077
H      3.7997      6.8691      0.0274
H     -2.7904      3.6956      5.9248
C    -10.9990     13.5147      8.6002
C      0.7227      5.2099      3.5756
C      4.7762      3.7273      2.6396
H      1.2297      4.5788      8.0710
H     -6.2808      7.7730      8.4051
H     -2.2578     12.0004      7.9911
H     -5.6395     10.4696      6.5572
C      1.9479      6.5039      9.0186
C     -1.2708      5.1840      6.1237
C      2.6354      0.5361      1.8042
C      1.1836      4.6979      5.8611
C      1.9020      6.5321      7.3912
C      2.4420      4.6239      0.1575
H     -1.3450      5.4534      1.6455
H      4.0250      2.4655      1.2800
H      2.1246      1.1109     -0.0149
H     -1.9473     10.8196      5.7520
H      5.5309      1.1094      3.3674
C     -0.4480      8.9426      4.9439
C     -4.3481      7.1784      9.7321
H      3.8863      5.5419      0.9611
H     22.1004      9.9944     14.8580
C     -4.3125     11.7119      7.9327
H      9.9451      5.8403      1.5990
H     -4.2887     10.1603      4.8008
C     -0.1553      7.7674      7.8807
C      0.5760      3.6261      5.4050
O      8.9228      5.3068      4.4900
C     -1.5686      7.9811      5.8430
C     -6.6988     14.6988      7.2026
C      5.0226      2.1161      6.4498
C      3.1760      0.7425      6.0298
H      8.8915      5.1576      5.5383
H     -5.5445     15.2353      7.0771
H      4.7091      3.5330      8.7447
H     -4.7221      9.5125      9.1649
H      0.6981      9.0826      6.5802
H     19.1039     12.7150     18.3045
C      1.8318      4.9668      7.0737
H     -0.4126      4.1596      2.3334
C      3.9791      5.2522      5.0045
C     -9.8598     15.6484      9.2308
H     20.8265      9.3175     15.5744
C      8.5093      6.9054     11.1272
H      3.6252      5.5490      8.1475
H     10.8053      6.5591     10.8679
C      3.7433      2.6406      4.5952
C     17.6803      9.9640     18.8218
C     -6.3555     12.8862      8.8528
C     -5.4922      9.5518      8.3885
C      5.4159      4.2977      8.3363
C     -7.1244     14.1645      8.6528
H     -1.2478      3.8571      8.0229
H      3.4402      4.1850      0.7087
H     19.8934      9.8193     13.5691
H      6.9744      5.5305     11.8002
H     -1.1219      2.6255      6.2709
C     14.3187     10.1051     13.8981
H    -10.3212     17.6371      9.5842
H     -2.3589      9.5860      3.6179
