262

C     19.6368     -4.2540     13.5199
N     -2.4915     10.7702      1.6147
C     17.0190    -11.1427     20.0056
C      2.4117      2.6519      2.1400
C     20.5584     -8.0068     15.2108
H     -3.4246      7.3022      2.5687
C     20.7557     -9.4860     15.3769
C     16.3771     -8.9715     18.0860
C     16.1007     -5.6897     19.2513
C     19.3915    -10.9584     16.9310
C      5.3446     -4.4998      8.9068
C     13.7464     -4.1867     13.7337
N      0.5501      2.3634      5.7751
C      0.8756      6.3537      0.4185
O     -1.1748      2.6530      1.5289
C     16.0653     -8.8883     19.6436
H     14.1478     -5.1352     11.5183
C     15.8293     -6.7658     17.4387
C     16.3682     -2.6221     16.3835
H      1.5248      0.9450      9.9708
H     -2.5341      2.5212      5.0889
H     16.8293     -5.8691     14.3322
C     17.0149     -3.9597     16.2313
H      4.2511     -6.7754      9.4263
H     -0.6784      5.6458      6.8843
C     16.1212    -10.0430     20.5484
H     20.3479    -11.4079     17.2701
O     14.0895     -2.5779     15.5692
C     -5.0254     12.6562      8.6388
C      6.1119     -6.9360     10.0560
H      3.3711     -0.2295      6.8779
H      3.7831     -7.6637      8.4249
C     19.6006     -9.8058     15.8710
H      5.9786     -9.3656      7.6123
H      2.9675      7.2006      8.7116
C     16.8041     -1.9647     17.4400
C     -2.7617      8.4653      5.1397
O      2.1163      8.6797      4.6108
C     -1.5057      8.0388      7.2011
C      8.9787     -4.9256     11.9468
C     20.6945     -5.1713     12.9152
C      6.8053     -6.0301     12.1646
H      5.6232      4.6929      1.8290
H     17.3587     -2.9453     14.1515
H      1.9549     -1.2181      5.4860
H     -5.9538      6.7488      8.9973
C      7.9271    -10.4343      8.9768
H      0.5240      1.6897      2.0844
C      7.1938     -6.5845     10.8692
C     21.0661     -7.2177     16.2828
H     21.1474     -5.1978     14.9154
C     -1.1427      6.7969      5.1109
H     15.6171     -4.1705     20.9118
H     16.3928     -1.9787     15.4385
H      2.7811      5.7929      0.4044
C     -3.4629     11.2279      7.6103
C      6.3299     -8.1053      9.2592
C     16.0556     -5.2639     17.9310
C      5.2751     -7.8443     12.4568
C     17.5199     -3.8630     14.9418
H     -3.4134      7.6412      5.0390
H     21.0755     -5.1805     16.7669
H     -9.2287     13.8600     10.5608
H     17.9761     -0.5946     16.4912
C     -0.2481      3.3529      8.0903
H     19.4824     -2.6075     15.1759
C     12.8198     -4.0355     12.6570
C      1.6536      1.7944      7.8596
H     11.3550     -6.6869     10.6482
C     -0.4851      6.2862      1.1139
H      5.8201     -5.5623     11.7952
H     19.1217     -4.0515     12.6564
C     10.3727     -5.3382     12.4809
O     15.2880     -2.4572     13.6624
C      6.6634     -4.1966      8.8679
C     16.5462     -4.3505     20.2679
C     -9.3090     14.4889      9.6128
C      2.7230      1.0749      5.0054
H     -1.5555     11.0484      1.8121
H      5.3481     -1.2038      7.0642
H    -10.9082     16.8850      9.8864
C      4.3091      3.6936      2.9757
H     -3.2157      9.1044      7.4285
C     -2.0826      8.4910      0.5659
C     11.8275     -6.1266     11.6425
H     -2.4984     11.3394      5.6737
C     18.3911    -10.5807     17.8877
H     16.9456     -0.1431     17.5784
C      2.2051     -0.4702      8.9452
C      4.4922     -1.9179      8.5758
C     -2.0785      5.1038      3.8469
C     16.2035     -3.1769     19.4379
C      2.9257      3.8905      2.3925
C      4.9614     -5.9692      9.4507
H      1.9044     -1.1216      9.5600
H     15.2384     -4.9273     13.5092
H      0.4992      3.7578     -0.2726
O     18.6670     -6.2147     19.5846
C      0.9117      7.9577      4.3594
H      3.7849     -2.4334      7.7011
C     -2.6955      8.8063      3.7236
C     -2.3332      7.4739      2.8340
H      7.2336     -4.9343      9.4220
H     21.2090     -9.5134     16.1995
C     -2.6313      8.4301      8.0133
H     15.3598     -8.8749     17.8451
H     12.5329     -2.8528     10.9984
H      4.1172     -8.5436     13.4939
H      0.5684      4.1182      8.2883
C      3.3614      1.5562      2.4286
C     -0.1871      8.5580      2.1431
O      4.7728     -9.1502     13.1220
O      7.7057     -9.0684     11.0321
C     -0.2086      3.1971      1.1885
C      0.1351      3.5392      3.6710
C      6.9477     -2.0972      7.4638
H     -3.2102     10.4052      8.6677
H     15.0964     -3.1735     18.9798
H     -0.5704      9.6215      4.3511
H     13.0926     -4.6721     10.5087
O      0.0857      9.8809      6.2227
C      5.7310     -1.3852      8.0199
C      0.8139      6.9700      6.5695
C     14.5379     -5.3442     13.9736
H     15.2039     -4.4741     15.5535
C      0.4708      7.4974      2.8938
H     -4.3463     13.5712      8.9450
C      2.2849      0.1604      3.9502
C      0.5208      2.4307      7.1699
C     -2.6083     10.5920      6.3737
C     -2.4016      3.4542      5.7663
C     17.6546     -0.7721     17.4190
C     -9.8418     16.9732     10.1056
C      1.1195      2.3634      1.4831
C     -1.3662      7.5827      1.6042
C      3.8072     -0.3885      8.4726
N      1.6097     -1.0245      4.4634
C      3.6596      1.5366      0.8860
O     17.0887     -6.4526     15.1289
C      9.7718     -6.3279     13.3478
H     18.4462     -3.0900     19.1476
C     -2.6022      4.4269      2.7847
C     -2.6498      7.6792      9.1816
H      8.0625    -10.6984      7.9674
H      8.1966     -9.8187     11.3082
H      7.8931     -3.4119      6.7080
C     -2.8499      9.5668      0.7802
H      5.6198     -5.8489      8.2685
H      1.2384      7.1986      9.0328
H     -3.2025      3.9752      6.2846
H     -0.6992      9.3468      2.5291
H     14.1547     -2.9805     11.9478
H     -0.6943      3.1481      9.2001
C     14.9217     -5.4063     15.4481
H      3.3341      0.5921      0.3996
C     13.1650     -2.9475     11.7806
H      0.7712     -1.1286      4.1605
C     17.3902     -4.8515     17.3483
C     20.5848     -5.7168     16.0178
C     20.2461     -3.0619     14.3712
C     18.7137     -4.6796     14.6329
C     17.4220     -6.9111     19.2576
C      2.1100      4.9742      2.4704
C      6.5403     -7.2965     12.9352
C     18.6235     -5.7015     17.0131
C      8.4155     -6.1898     13.7310
C      4.3394     -7.8397      7.4943
C      1.9073      5.3586      0.5119
H     -2.5062      6.2381      6.6525
C     19.4929     -5.8971     18.2476
H     -3.1044      4.9971      2.1226
H      1.3580      1.7457      0.6576
C      7.3416     -7.2258     14.0514
H     -0.9294      3.2836      3.7123
O     20.6150     -5.4455     18.6539
H     20.9529     -3.7072     14.9866
H      0.6676      2.7146      3.3812
H     -3.2728     11.1760      2.0768
H      1.3859      4.6214     -1.3985
H      8.6606    -10.5230      9.5910
H     17.8613     -7.4723     17.4703
C     12.8058     -5.1490     11.4813
C     15.8549     -6.5962     15.8375
H      1.9964      5.7543      8.9007
C     -1.7695      4.5045      5.1703
C      0.5989      6.6759      5.1822
H     17.5801     -4.5559     20.2539
H      3.0591      1.9734      4.3391
C      1.3471      5.6049      4.6020
H      1.3698     -0.6293      8.1897
H      1.9997     -0.2185      1.9322
H     14.9744     -2.8209     15.6908
H      0.5531      7.7815      8.3145
C     -5.0371      7.1504      8.3837
C     -8.4821     13.9020      8.4846
C     19.3686     -5.3304     15.8161
C     -3.5505      9.5710      6.0329
C     -0.1005      6.1602      2.8468
C     -1.4908      6.5029      3.6564
H      2.1101      3.1750     -0.6478
H      5.2121     -8.0500     11.3462
H     -1.9770      3.3038      6.7648
C      2.1989      1.0888      9.1934
H     -1.7210     10.1175      6.6563
C      0.7846      4.9499      3.2072
C      5.6284      3.9169      2.6461
H     -1.0912      3.7640      7.4144
H      6.5382     -4.1811      6.8607
C      7.5645     -9.0062      9.5758
H     -2.7113     11.9783      8.1438
H      6.6746     -2.2333      6.2599
C      2.1207      6.7730      8.4017
C     -1.5971      5.7677      6.2099
C      2.2737      0.5278      2.7558
C      1.3329      4.6412      5.5236
C      2.2465      6.4976      7.0508
C      1.6276      4.2568     -0.4875
H     -1.0115      5.4004      0.6753
H      4.2145      0.9597      2.8066
H      3.4487      2.2279      0.3266
H     -4.8183      7.3931      7.3737
H     19.3502    -12.0899     17.0381
C     -0.4354      8.9710      5.2610
C     -3.9104      6.9792      9.2350
H      4.5385     -7.1038     12.6134
H     -3.6251      9.1996      3.6070
C     -4.8111     11.5685      7.6451
H     -3.4223      3.5375      2.6181
H     -4.6080     10.0067      5.7681
C     -0.0877      7.4572      7.4702
C      0.5816      3.4874      5.0947
O     21.3910     -7.7707     17.4407
C     -1.5130      8.0837      5.7531
C     -6.4829     14.3581      7.1777
C     18.3351    -10.8870     19.3418
C      3.3091      0.7884      6.2323
H     -5.4225     14.1176      7.0675
H     -8.1327     16.0510      8.5535
H     -6.4236     12.2774      9.9908
H     -0.0115     10.8494      6.2821
H     18.1816     -0.9048     18.2548
C      1.8047      4.9245      6.8520
H     -0.1604      4.4194      1.2737
C     16.9042     -7.6377     17.8586
C     -9.2599     15.8312      9.0746
H     20.5648     -2.4778     13.6016
H      0.7495      6.4036     -0.7307
C      8.5574     -5.9471     10.7437
H     -9.8778     16.4578     11.0270
H     11.9180     -6.9957     12.3292
C      4.4502      3.1892      4.3845
C     17.3469     -2.9831     18.5616
C     -6.4806     12.5318      8.9369
C      7.0502     -3.5086      7.6431
C      5.5839     -8.5590      8.1562
C     -7.0173     13.9450      8.5863
H     -0.7981      4.4816      4.9520
H     -3.3716     10.3139      0.1075
H     10.0030     -6.9219     14.2183
C     14.4971     -3.1400     14.1500
H     -9.2562     17.8175     10.1541
H     -2.1362      9.7001      3.2659
