270

C     20.0072      8.7907     13.8261
N     -1.8248     10.4985      1.8413
C      4.2536      1.6553      7.1865
C      1.9609      2.8069      1.3683
C      6.7766      5.0686      2.4866
H     -3.9491      4.2064      3.1918
C      7.0150      3.7202      2.7840
C      3.3163      4.0248      5.4583
C     16.1245      7.2442     19.4540
C      5.9406      1.5431      3.7364
C     -7.3822      8.7373      9.2777
C     14.0676      8.6315     13.7651
N     -0.3294      2.8681      6.1857
C      0.4033      5.7323      0.6206
O     -1.5845      2.2296      1.7470
C      3.1293      4.0514      6.9867
C     15.6270      6.2899     17.4420
C     16.6913     10.6284     16.6052
H    -11.9792     13.9923      9.2426
H     -3.8694      3.6146      5.0318
H     17.5374      7.0583     15.1081
C     17.1152      9.1745     16.0650
H     -8.8864      7.6826     10.8688
H     -7.0750      9.6545      9.6038
H      7.9770      2.9701      3.1848
H     13.1961      7.5475     10.4882
H     -0.3548      5.1947      6.6223
H      8.5901      3.1668     10.0720
C      3.0262      2.7567      7.5684
O     14.5720     10.6283     15.2553
C     -4.8752     12.6508      8.5569
H      4.8006      3.1968     11.2518
C      7.0250      6.0902      9.7158
H      2.1822      0.5655      6.5086
H      1.2001      7.9176      9.0414
C      6.0103      2.6716      2.7194
H      6.6378      5.4080      7.3726
H     -7.7868     11.4952      9.8491
H     -8.0694      6.6700      9.5156
C     17.8332     11.0713     17.6130
C     -2.8208      8.1262      5.1130
O      2.1130      8.8998      4.9556
C     -1.4849      7.7036      7.0349
C      9.0076      8.2343     11.9709
C     20.5698      7.8995     12.8164
C      6.5216      7.1811     -0.8218
H      4.7048      4.0896      1.6027
H     18.1528     10.0344     14.4908
H      2.5375     -0.9257      2.9855
H     13.8680     10.9506     15.8937
C      7.7017      3.1297      9.4021
C      7.2438      6.5815     10.9703
C      7.3146      5.9025      3.5229
H      8.2923      7.2121      2.1567
C     -0.8561      6.5848      5.3170
H     16.2000      8.5811     21.0909
H      3.0004      0.0274      1.4989
H     14.7304      6.7818     13.3314
C     -3.5132     11.4635      7.1207
C      5.9913      4.8667      9.3491
O      5.4178      2.8017     10.5618
C     15.9882      7.6765     18.0973
C      4.7117      6.0221     -0.0034
C     17.5822      8.9962     14.7728
H     -3.3064      7.0165      4.9535
H      8.3703      7.8905      4.0775
H     -9.5028     13.9716     10.5176
H     -6.5054     12.1647     10.1159
H     18.5610     12.4282     16.3159
C     -0.5500      3.6992      8.4752
C     13.5493      8.4359     12.4440
C      1.6451      2.1306      7.7779
H     -1.5306      7.1950      9.6247
C     -0.7450      6.2783      1.3494
H      5.8509      7.9278     -1.1216
H     -2.6737      2.8100      4.1936
C     10.2909      7.5845     12.6229
O     15.0064     10.6429     12.9895
C     -6.2758      8.3835      8.2917
C     16.7781      8.4278     20.1530
C     -9.5969     14.3709      9.4579
C      3.0025      1.5770      4.8207
H     -1.9499     11.5379      1.8327
H     -2.8549     10.3593      0.1716
H     -7.0962     11.8515      6.8242
H     -9.6820     16.9910     11.0576
C      3.7532      3.3714      3.3873
H     -4.5621      9.0386      6.1161
C     -2.0439      8.5200      0.5585
C     11.4170      7.1464     11.7004
H     -2.2476      9.7997      7.1024
C      5.1210      2.0495      4.9795
H      3.1613     -0.5428      5.8460
H     -4.3588     13.5484      8.3378
C    -10.4829     12.4942      8.3663
C     -8.3075     11.2663      8.8613
C     -2.0553      5.1125      3.8412
C     16.8370      9.8550     19.5927
C      2.4176      3.7084      2.7986
C     -8.1506      7.7129      9.9517
H     15.7692      8.5928     13.6633
H     -2.4907      3.8273      2.2838
H      3.0875      5.3293     -0.0646
O      5.6380      6.6141      6.4835
C      0.7591      8.1828      4.4967
H     -8.5127     10.5018      8.2337
C     -2.7663      8.1939      3.6743
C     -1.9214      7.4611      2.8301
H     -6.7132      8.7947      7.2036
C     -2.6295      7.7528      7.6376
H      2.3419      3.8033      5.0466
H     13.8265      8.9334     10.2807
H      6.0725      1.7921      2.0121
H     -0.2534      3.2280      9.4627
C      3.2922      2.1770      0.9811
C      0.0103      8.4660      2.0449
O      7.0497      4.3385     11.2022
C     -0.7389      3.1258      1.5763
C      0.1892      3.9356      3.9183
C     -5.6658     10.5824      7.6383
H     -3.3983      7.7767      6.9335
H     16.0560     10.4815     20.0850
H      0.1107      5.3734     -0.1785
O     -0.2326      9.9878      6.1862
C     -6.9254     11.4581      7.9978
C      0.8394      7.1170      6.8978
C     15.1775      7.6575     13.9167
H     15.6249      8.4709     15.8744
C      0.7442      7.7189      3.1245
H     -4.1855     12.4324      9.4760
C      2.8450      0.6111      3.6986
C      0.2060      2.5314      7.7446
C     -2.8476     10.4451      6.5088
C     -2.9196      3.4463      5.1106
C     18.6256     12.0993     17.4516
C     -9.9957     16.7744     10.0784
C      0.5691      2.7116      0.9842
C     -1.2203      7.7420      1.5764
C     -9.1705     12.2723      8.3877
N      2.3073     -0.6088      3.9360
C      3.2409      1.7458     -0.4250
O     17.2539      6.2238     15.4844
C      9.5079      6.3061      0.1745
H     18.2687      9.1852     18.3966
H     -0.3646      1.6974      8.1513
C     -3.0810      4.7077      2.8626
C     -2.6614      7.6008      9.1068
H      8.0458      3.7726      8.4499
H      1.6652      1.9973      6.5054
H      7.1158      4.7459      0.5418
H     -4.2957      9.0627      8.6175
C     -2.1952      9.8216      0.7547
H      5.1157      5.0575      9.8938
H     -0.8441     10.0329      4.4327
H     14.5220     10.0867     11.5112
H      2.2192      1.8392     -0.8273
H     -1.5895      3.7349      7.9823
C     15.0855      7.5638     15.4903
H      3.8853      1.9878     -1.0935
H     -1.5199     10.1450      2.6322
C     13.7148      9.2265     11.3169
H     15.6450     10.3762     17.1592
C      4.3982      8.2059      4.3387
C      7.7455      7.2715      3.2608
C     21.1512      9.3913     14.8150
C     18.7541      8.0795     14.6709
C      4.2995      6.0433      6.4523
C      1.9581      5.1738      2.5342
C      6.0441      6.3935      0.2612
C      5.4319      7.1684      4.2922
C      8.2946      6.6301      0.6617
C      4.2681      4.9764      7.5060
C      1.6925      5.3243      0.9922
H     -2.0705      5.8473      6.9358
C      6.2664      7.0521      5.3431
H     10.2560      5.7896      0.7185
H      0.4491      1.9938      0.1175
C      6.9875      5.6258      1.0943
H     -0.8306      3.2660      3.4400
O      7.5247      7.2868      5.4504
H      9.1229      9.0677     11.2852
H     21.1772     10.4993     14.4061
H      1.4357      3.4150      3.2896
H      0.0424      9.4323      2.5157
H      3.1372      3.7699      0.2617
H      5.0463      5.8569      4.5847
C     12.6881      7.2969     11.6940
C     15.8635      6.1667     15.9370
H      2.7969      7.1523      9.3304
C     -2.1825      4.7929      5.2439
C      0.4565      6.9905      5.4420
H     17.6103      8.4496     20.9280
H      2.1200      1.9995      4.9965
C      1.3361      5.8196      4.8524
H    -11.2744     11.6067      8.5145
H      1.5959      0.7964      2.1308
H     16.5818     11.0837     15.6886
H     -0.0557      7.8174      8.6798
C     -4.5837      5.9765      9.0696
C     -8.5566     13.6722      8.4581
C      6.3296      7.7192      2.9937
C     -3.5811      9.3586      5.6486
C     -0.0768      6.2799      2.9692
C     -1.3024      6.3028      3.8313
H      4.1080      6.7712     -0.3674
H     -2.9448      2.9677      6.0558
C    -11.0601     14.0279      8.6244
C      0.7442      5.2466      3.5481
C      4.7572      3.3564      2.5199
H      1.1683      4.3661      8.1425
H     -5.9856      7.5133      8.7860
C      6.5022      3.7115     10.1035
H     -2.7955     12.3617      7.5797
H     -5.6001     10.4455      6.5525
C      1.9438      7.0016      8.7009
C     -1.2935      5.4809      6.2042
C      2.6413      0.9227      2.2461
C      0.8617      4.8981      6.0275
C      2.0887      6.4657      7.2570
C      2.4514      4.5542      0.0429
H     -1.3082      5.2824      1.3060
H      3.9477      2.6642      1.6636
H      3.0956      0.6046     -0.3850
H     -3.9608      5.1104      8.9223
H      7.8556      2.4182      8.6842
H     -1.7515     10.9670      6.4380
H      5.7390      0.9074      2.9536
C     -0.5514      9.0918      4.9593
C     -3.7513      7.0487      9.7269
H     20.5500      9.4202     15.6243
C     -4.7756     11.7207      7.4403
H     -3.4083      5.5942      2.2657
H     -3.6172      9.9299      4.7098
H     -7.1557     14.8523      8.9879
C     -0.1260      7.5217      7.7196
C      0.1847      3.9095      5.3931
O      8.0411      5.0213      4.4479
C     -1.4439      8.0087      5.4820
C     -6.5468     14.3293      7.0063
C      5.3833      2.0841      6.3825
C      3.1806      0.7127      5.9174
H      8.6091      5.8045      4.8710
H     -5.9161     15.0806      7.3283
H      6.1211      3.6243      7.5643
H     -5.3341      9.6289      9.6015
H     -0.3671      9.3978      6.9921
H     18.8861     12.7905     18.1689
C      1.8675      4.9171      7.2226
H     -1.1011      4.3230      1.7817
C      3.9272      5.4701      5.0735
C     -9.6910     15.7973      9.1483
H     21.8916      8.7738     14.3475
C      8.5299      7.2951     10.8633
H      4.0450      5.1317      8.6181
H     10.4575      6.7443     11.2923
H     -5.8357     13.6109      6.4150
C      3.8984      2.7873      4.7061
C     17.8162     10.1803     18.7906
C     -6.3524     12.7284      8.8672
C     -5.2064      9.4612      8.4532
C      5.8504      4.5735      7.7022
C     -7.1788     13.8730      8.3337
H     -0.1220      4.7995      8.6379
H      1.5198      4.0667     -0.7422
H     19.6193      9.7981     13.9995
H      7.9371      4.4732     10.6522
H     -1.2251      2.3060      6.1437
C     14.6352      9.9621     13.9528
H     -9.8940     17.6925      9.7889
H     -2.9819      9.1470      3.1885
