266

C      6.8887      9.0686      0.9953
C      3.9558      1.3149      7.0113
C      2.2830      2.9074      1.2974
C      7.1171      4.9942      2.8969
H     -2.6119      3.3258      2.8095
C      7.2701      3.4627      3.1461
C      3.5659      3.8283      5.5148
C      6.3912     -3.1682     10.2790
C      3.1999      6.9829      6.6904
C      5.7953      1.4085      3.4559
C      5.7262     -4.2253      9.4064
C     13.7631     -4.1547      0.7406
N     12.5779     -9.8446     -6.2688
C     13.4889     -7.0097      0.7032
O     -1.2375      2.4035      1.6476
C      3.6605      3.5326      6.7865
C      2.5409      6.1833      4.3588
C      3.6740     10.5047      3.8216
H      1.3117      1.4758      9.5851
H     -3.4582      2.8852      4.6587
H      4.3695      5.1789      2.6838
H      5.5678     -1.7584     11.8395
C      4.0079      9.1335      3.5669
H      4.2562     -4.7497     10.9505
H      6.6981     -2.2150      9.6104
H      7.6875      3.2455      4.1794
H     12.5346     -5.5500     -2.5010
H     -0.9851      4.9019      6.6103
C      2.9028      2.5678      7.4440
H     10.5989     -3.5805     -1.2476
H      6.9101      1.0289      3.4423
O     15.1028     -2.6769      1.8184
C      8.2010     -0.4296      8.8336
C      6.7022     -6.9222     -3.1092
H      2.5601     -0.0339      6.5633
H     15.8157     -5.9141     -3.6536
C      6.0694      2.6638      2.6709
H      6.1654     -8.1869     -5.5336
H      7.3578     -3.7862     10.6501
H      4.6212     -2.8169      8.1612
H      4.9724     -6.0947     10.2553
C      4.6741     10.7392      4.8654
C     10.1012     -4.1428      5.2135
O      2.0825      8.5671      4.8276
C     11.4028     -4.7197     -5.7630
C      8.8778     -4.8798     -0.8237
C      7.6198      8.0594      0.3032
C      6.6741     -5.8447     -0.5208
H      4.6263      3.8384      1.5465
H      4.7526     10.1492      2.0561
H      0.9175     -0.4354      2.9076
H      7.8528     -6.2444     -5.3453
H     14.8902     -1.7390      2.2351
C      7.0874     -6.3062     -1.8675
C      7.8385      5.9123      3.6553
H      8.5737      9.3750      2.4717
C     -1.2838      6.7289      5.1443
H      2.3582      8.7290      7.6648
H      3.7843      0.2159      2.2886
H      4.6613     -2.1665     10.2847
H      2.6095      7.3947      0.0504
C      9.9758     -1.3626      7.7588
C      5.3568     -7.3565     -3.7547
C      3.0706      7.3873      5.0487
C      4.8062     -6.9901      0.5621
C      4.8751      9.2461      2.5000
H      9.1265     -4.6970      5.1232
H      4.0341      1.0701     10.3540
H      6.1369     -0.3773      9.6969
H      5.1267     12.5987      4.0168
C     13.3530     -8.9453     -4.2932
C     13.1096     -4.4699     -0.7964
C      1.4824      1.5628      7.6938
H     11.0217     -7.3348     -5.0947
C     12.3349     -6.5547      1.4648
H      5.6140     -5.5789     -0.8725
H     -2.2095      2.2030      3.9398
H      4.2749     -2.8256     12.0441
C     10.0140     -5.7006     -0.1455
O     14.7756     -2.1499     -0.3817
C      5.8196     -4.0758      8.1038
C      3.1918      8.3287      7.0500
C      3.6410      1.5479      9.2002
C      2.7561      1.3609      4.6434
H     11.6554     -2.4683     -0.1891
H      2.7413      3.4667     10.9561
C      3.6739      3.3132      3.2046
H      8.8441     -2.8719      6.8404
C     10.8622     -4.6241      0.5287
C     10.9807     -5.9969     -1.2571
H     10.0232     -8.4208     -4.9311
H     11.4820     -2.6296      7.2701
C      5.2534      1.7153      4.8036
H      3.4845     -0.4418      5.0106
H      8.6508      0.4743      8.3822
C      2.5618     -0.3411      8.9805
C      4.8114     -1.5819      7.9132
C     -2.1423      5.1348      3.3598
C      3.7268      9.3470      6.3704
C      2.3616      3.4801      2.7344
C      4.7961     -5.0308     10.0444
H     -3.8304      4.4760      1.9432
H     14.9711     -9.1984     -0.4637
O      5.6100      6.2418      6.4181
C      0.7354      8.2364      4.5416
H      4.3304     -1.7405      6.8912
C     10.4509     -3.8576      3.5097
C     10.8306     -5.0433      2.8029
H      5.2634     -4.9198      7.3889
C     10.3037     -5.2544     -5.2191
H     14.4946    -10.1189     -7.6766
H     14.5564     -5.1778     -2.2648
H      6.4870      2.3150      1.7569
H     14.3328     -9.1723     -3.5708
C      2.9420      1.7126      1.1567
C     12.8067     -4.1814      1.9819
C     -0.3122      3.1136      1.6864
C     -0.1353      3.9414      4.0517
C      7.3068     -1.7806      7.2835
H      1.3801     -0.2797      4.7591
H      9.2911     -5.4054     -5.8193
H     13.2693     -6.9512     -0.5461
O     13.0190     -3.3605     -6.6812
C      6.1679     -1.0170      7.7620
C     13.5009     -5.8420     -6.1190
C      2.0286      7.7203      0.9318
H      2.8089      8.0982      2.7200
C      0.5778      7.9412      3.0284
H      8.9763     -0.3392      9.7722
C      2.0490      0.7973      3.4789
C     13.1744    -10.2842     -5.0605
C     10.8195     -2.0147      6.7581
C     -2.2897      3.1655      4.5857
C      5.5499     11.7602      4.5586
C      2.7841      3.6362      9.9166
C      0.9116      2.3879      1.3429
C     11.6927     -5.1890      1.5246
C      3.9829     -0.4510      8.5136
N      1.6387     -0.4641      3.8923
H      4.2071      1.0061     -0.4454
C      3.0602      1.0979     -0.3560
O      3.9290      6.0496      2.4060
C      9.4882     -6.5900      1.0336
H      5.8294      9.1531      5.5716
H     12.4170    -10.8067     -4.3406
C     -2.7792      4.4393      2.4468
C     10.1894     -5.4962     -3.7818
H      1.1218      1.0367      6.9776
H      7.5198     -8.0967      0.9062
H      7.1649     -4.1610      6.8837
C     11.1418     -3.5827     -0.3107
H      4.5674     -6.6054     -4.4214
H     14.7649     -5.1178     -4.1117
H     11.6999     -2.9817     -7.8439
H     14.7103     -3.3512     -1.5605
H      2.8643      2.0657     -1.0512
H     12.6348     -8.9121     -3.5613
C      1.9892      7.4894      2.3837
H      4.6995     -7.5726     -2.7872
C     14.0299     -4.2664     -1.8792
C      5.3447     -2.6986     11.2402
H      2.7324     10.5767      4.3061
C      4.1530      7.9356      4.4230
C      7.8446      7.2069      3.0352
C      8.0084      9.7690      1.5112
C      6.1149      8.7653      2.3926
C      4.1968      5.8917      6.2928
C      1.6991      4.8952      2.6400
C      6.1916     -6.7623      0.4740
C      5.5454      7.1439      4.2692
C      8.1791     -5.9963      1.4875
C      4.1421     -8.2207     -5.4893
C     14.3884     -7.8210      1.1330
H     -2.4500      5.3476      6.3287
C      6.2801      6.8149      5.4707
H      9.1801     -7.1223      0.0229
H      0.7959      1.4136      1.9076
C      7.2146     -7.2715      1.4607
H      0.0663      3.1078      3.3222
H     10.2335     -6.6799     -3.6437
O      7.4703      6.7161      5.6431
H      8.9366     -3.7930     -1.0437
H      1.6597      2.8510      3.1547
H     12.1057     -3.3207      1.8384
H     16.5900     -8.4060      0.4065
H      4.8262      5.2168      4.6153
C     12.2892     -5.6628     -1.4307
C      2.6788      6.0440      2.9179
C     -1.5216      4.3209      4.4571
C      0.3552      6.8894      5.4413
H      3.8962     -4.9358      9.3863
H      1.9600      1.6763      5.5035
C     14.1868     -7.1358     -8.0683
H      2.3206     -0.2010      1.5053
H      3.4675     11.2567      3.1104
H     12.9787     -4.5936     -4.2244
C      7.8026     -6.3831     -4.0818
C      4.5852      0.8468      8.1477
C      6.3471      7.6421      3.1151
C      9.7006     -2.7505      6.0382
C     12.7529     -6.4776      2.9318
C     -1.7333      6.6581      3.6169
H      4.0624     -6.1267      0.3054
H     -2.2706      2.9059      5.7084
C      2.1560      1.0878      8.9322
C      0.5827      5.3430      3.6442
C      4.8251      3.3424      2.4218
H     14.8203     -8.6382     -5.2201
H     10.4636     -0.8992      8.8164
H      7.7960     -1.4959      6.4224
C     14.8797     -6.2517     -4.1781
C     -1.4085      5.3304      5.7267
C      2.7744      0.5430      2.2698
C     14.1098     -8.1465     -7.1265
C     14.8346     -6.4785     -5.5929
C     15.4294     -8.6667      0.3182
H     11.4499     -7.2049      1.2728
H      4.1411      1.7842      1.5546
H      2.2736      0.4021     -0.0737
H     11.6160     -1.1547      6.1902
H      4.8139      1.0890      3.5746
C     12.4463     -3.8734     -7.8268
C      8.6467     -5.5120     -3.3627
H      4.3053     -8.0019      0.2017
H      8.8947      9.7504      0.6739
C      8.6004     -1.3898      7.8803
H     10.3765     -6.9876      1.7754
H      9.3498     -2.0815      5.1180
H      6.0074      1.6930      9.5246
C     12.6438     -5.1879     -5.1684
C     13.6135     -9.4837     -7.4434
O      8.7885      5.5928      4.4021
C     11.2939     -5.0224     -7.2789
C      6.5616      1.7980      7.2463
C      5.2771      2.0717      6.2603
C      3.2554      0.3617      5.7287
H      8.9599      6.3234      5.0987
H      6.8372      2.6803      7.4420
H      5.6251     -9.1276     -4.0462
H      8.2082     -3.8302      8.2424
H     14.0682     -3.6882     -6.7903
H      6.2324     12.1568      5.2308
O     10.5281     -7.7645     -4.3514
C     14.7572     -7.7961     -5.9391
H     -0.2323      4.1824      1.8792
C      3.8556      5.1407      4.9849
C      3.4391      2.8598      9.0273
H      7.7096     10.9027      1.3530
C      8.3781     -5.6525     -2.0051
H      3.5022     -7.9770     -4.6853
H     10.5875     -6.5255     -2.1271
H      7.4000      1.1516      6.8243
C      3.7883      2.5535      4.4773
C      4.9722      9.8611      5.8569
C      6.6133     -0.1850      8.7996
C      7.3831     -3.3917      7.6106
C      5.5076     -8.3415     -4.7552
C      6.0927      1.2117      8.5590
H     13.2359     -8.0513     -4.9450
H     10.9924     -4.9451     -3.7095
H      0.4672      2.5812      0.1555
H      6.1168      9.2896      0.2718
H     11.9311    -10.5229     -6.5871
C     14.4088     -2.9150      0.6301
H      2.5400      4.6366     10.0162
H     10.4725     -2.7838      2.8059
