268

C     19.7045      8.7837     13.9021
N     -1.8147     10.7888      1.3352
C      3.8494      1.6972      7.2102
C      2.0113      2.5825      1.7040
C      7.5847      5.0184      2.2489
H     -3.2734      6.7573      2.8396
C      7.2596      3.9169      2.8983
C      3.1940      3.6984      5.4325
C     16.1662      7.0894     19.4795
C      5.8870      1.9433      3.8354
C     -7.0385      8.0691      9.7217
C     13.9158      8.7567     13.6565
N     -0.2324      2.6749      6.4800
C      0.5421      6.0822      0.5362
O     -1.7459      2.9205      1.0315
C      3.0613      4.0008      6.9245
C     15.5374      6.0052     17.5588
C     16.2937     10.4770     16.6031
H    -11.4682     13.2633      9.8319
H     -3.2986      3.9207      5.6921
H     16.6400      6.8459     14.8329
C     16.7321      9.0195     16.0741
H     -9.0312      7.5864     10.3466
H     -6.8333      8.8330     10.4571
H      8.1010      3.2202      3.6140
H     13.1356      6.9957     11.1929
H     -1.1976      5.5020      6.7221
H      8.3681      3.1697     10.5906
C      2.8534      2.6315      7.7385
H      6.8889      1.2313      3.8050
O     14.2640     10.9156     15.0315
C     -4.9531     12.7341      8.3977
C      6.8982      6.0578      9.6672
H      3.2706     -0.0991      6.6627
H      2.9867      7.0413      8.7939
C      6.0631      3.4412      3.3878
H      6.0568      4.5276      7.5518
H     -7.9788     10.7573      9.5565
H     -8.0848      6.6590      8.9943
C     16.9975     11.0822     17.9314
C     -3.1263      8.4166      5.0605
O      1.9787      8.4263      4.9763
C     -1.4625      8.1799      6.8291
C      8.5749      8.4767     11.8824
C     20.3742      7.8651     12.9609
C      6.6106      6.9411     -0.8974
H      4.6339      4.7376      1.6455
H     16.9104      9.9142     14.2668
H      1.6808     -1.3351      4.0049
H     -6.1696      6.9346      8.0235
C      7.8550      3.2372      9.4823
C      7.3466      6.7382     10.8614
C      8.1587      6.0041      3.1920
H      8.2395      7.4532      1.8099
C     -1.2552      6.8006      4.9720
H     16.2431      8.7045     21.2872
H      2.2709     -0.7109      2.2784
H     15.3992      7.2600     13.3861
C     -3.3317     11.6641      7.0531
C      6.0325      4.8218      9.6733
O      5.8309      2.8231     10.5797
C     15.7577      7.4431     18.0310
C      4.8742      5.5670     -0.0332
C     17.3985      9.1856     14.8949
H     -3.9041      7.5073      5.5470
H      7.2572      7.6485      4.3174
H     -9.2813     13.9452     10.3904
H     -6.4621     12.0993      9.7870
H     17.5690     13.0869     17.1961
C      0.0921      3.1396      8.6352
H     21.3782     10.3545     13.9405
C     13.4113      8.9389     12.2281
C      1.7060      1.7526      7.7338
H     -1.7682      7.8047      9.3384
C     -0.9071      6.1600      1.2736
H      5.6860      7.2680     -1.2463
C     10.1249      8.0698     12.4907
O     15.2143     10.4222     12.9493
C     -6.3933      8.5681      8.5076
C     16.7878      8.1678     20.4699
C     -9.5138     14.2854      9.4248
C      2.7028      1.5376      4.9056
H     -1.7666     10.5952      2.3481
H     -2.9155     10.2492     -0.4990
H     -6.9980     12.1386      6.9940
H     -9.5304     17.1956     11.1754
C      3.8024      3.3355      3.2050
H     -4.4875      9.1077      6.2959
C     -2.2225      8.6158      0.6557
C     11.0809      7.8035     11.4819
H     -1.7968     10.5380      6.0623
C      5.3080      2.3404      5.1900
H      4.2249      0.4518      5.8743
H     -1.7892      3.6438      0.1263
C    -10.3130     12.3564      8.7604
C     -8.2124     11.1230      8.5948
C     -2.1993      5.1425      3.4062
C     16.6337      9.3669     19.5374
C      2.4101      3.5309      2.8878
C     -8.1194      7.1888      9.9713
H     16.0646      8.6013     14.1417
H      8.1820      5.0443      4.8634
H      2.5915      4.8548     -1.0415
O      5.4231      6.4714      6.5484
C      0.6766      8.0128      4.3138
H     -8.6654     10.2304      8.1684
C     -3.1091      8.6940      3.4308
C     -2.3609      7.6381      2.9413
H     -6.7159      8.3903      7.3626
C     -2.5692      7.5642      7.3234
H      2.0607      3.6635      5.1607
H     13.6577      9.0925     10.1625
H      4.1582      3.8204     -0.6958
H     -0.5088      3.9978      8.1057
C      3.0116      1.5099      1.3620
C     -0.1744      8.6565      1.9032
O      5.0223      4.0561     -0.0889
O      7.1896      4.3616     11.5378
C     -0.5596      3.1407      1.5758
C     -0.4189      3.8790      4.3132
C     -5.7525     10.6156      7.4360
H     -3.5228      7.3795      6.8658
H     15.4888      9.2671     18.9884
H      0.6685      5.9228     -0.5093
O     -0.0600      9.8903      5.6007
C     -6.9460     11.4479      7.7674
C      0.7351      7.3102      6.7686
C     15.1263      7.9435     14.0733
H     15.4808      8.5627     15.8616
C      0.4853      7.6511      2.8670
H     -4.0632     13.0493      8.8286
C      2.2136      0.5901      3.7897
C      0.2207      2.1923      7.6338
C     -2.8432     10.6555      6.3337
C     -2.5216      3.5151      5.1449
C     17.8159     12.1314     17.7485
C    -10.0087     16.7947      9.9580
C      0.6696      2.1231      1.4306
C     -1.4935      7.7966      1.4915
C     -9.0221     12.2185      8.4328
N      2.1392     -0.5295      4.4350
C      3.4607      1.4342     -0.1149
O     16.7796      6.1400     15.5364
C      9.4470      6.6456      0.2615
H     18.5502     10.1338     19.1180
H     -0.4777      1.4627      7.9611
C     -2.8036      4.7878      2.2466
C     -2.7105      7.5245      8.7236
H      8.8837      3.6871      9.1313
H      1.8948      1.2520      6.8490
H      7.7456      5.1633     11.6146
H     -5.0274      9.9794      9.4107
C     -2.3129      9.9444      0.6340
H     -7.8819      6.4546     10.7987
H     -1.1644      9.3276      3.6153
H      3.8332      0.5469     -0.1081
H      0.9680      3.8788      8.8697
C     14.9060      7.6245     15.5077
H      2.7046      1.2046     -0.8097
C     13.7116      9.6991     11.1557
H      6.0172      1.8184     11.0691
H     15.3724     10.3422     17.1726
C      4.0719      7.8283      4.2398
C      7.3939      7.1600      3.2633
C     21.0986      9.3018     14.3635
C     18.6420      8.4437     14.8235
C      4.1658      5.8951      6.4623
C      1.8044      4.9616      2.5007
C      6.3653      5.9461      0.1309
C      5.4223      7.4150      4.3102
C      8.2222      6.9488      0.8113
C      3.9358      4.9579      7.6424
C      1.3620      4.9666      1.0340
H     -3.0464      5.6661      5.8885
C      6.0801      6.6328      5.3338
H     10.1384      6.3121      1.1501
H      0.2799      1.1246      0.9912
C      7.3411      5.6923      1.0818
H     -0.5483      3.0814      3.4575
O      7.3409      7.1495      5.9615
H      8.6669      9.6559     11.7367
H     21.3191      9.5806     15.2090
H      1.7701      3.2507      3.7639
H      0.2131      9.5920      2.2790
H      2.8878      3.6780      0.2800
H      4.4099      5.1446      4.2826
C     12.4565      7.9308     11.8170
H      6.3531      5.3921      4.7522
C     15.3643      6.1270     16.0037
H      1.7037      5.6882      9.5620
C     -1.6938      4.4991      4.5734
C      0.2359      6.8730      5.2508
H     18.0325      8.0592     20.1978
H      1.5493      2.0569      4.7205
C      1.1605      5.7304      4.7907
H    -10.9976     11.5513      9.2399
H     16.2870     11.1916     15.6290
H      0.0369      7.7826      8.5968
C     -5.0335      6.4169      8.5091
C     -8.5779     13.7001      8.3274
C      6.0470      7.5571      2.9221
C     -3.8361      9.6682      5.7023
C     -0.3399      6.3235      2.7003
C     -1.6104      6.6190      3.6132
H      4.6175      5.7430     -0.9846
H     -1.7221      2.8971      5.9265
C    -10.8717     13.7037      9.0028
C      0.4761      5.0486      3.4256
C      4.9019      3.8746      2.6946
H      1.2530      4.7477      7.8532
H     -4.3150      9.0977      8.2906
C      6.7213      3.7909     10.3705
H     -2.4353     12.5163      7.0984
H     -5.8715     10.0870      6.3857
C      1.9378      6.6603      8.8434
C     -1.8732      5.5649      5.7410
C      2.1744      0.4726      2.3199
C      0.8786      4.8080      5.8500
C      2.0717      6.5537      7.4074
C      2.2700      4.6023     -0.1054
H      3.9108      2.0064      1.9009
H      4.2504      2.2911      0.0090
H     -4.7371      5.4227      7.9930
H      7.3012      2.6361      8.8580
H      5.2085      1.6007      3.0855
C     -0.5822      9.0010      4.5991
C     -3.9124      7.2021      9.2734
H      4.3151      5.9665      0.7962
H     -4.2509      8.6850      3.3322
C     -4.7779     11.7866      7.5275
H     -2.6857      3.5615      2.5427
H     -4.5530     10.3613      5.3309
H     -6.8420     14.5251      9.3803
C     -0.2105      7.8638      7.4775
C      0.2235      3.5499      5.6077
O      8.6730      5.7829      4.3496
C     -1.6476      8.2158      5.3096
C     -6.7080     14.2759      7.1983
C      5.2997      2.1584      6.4842
C      3.2470      0.7823      6.0864
H      7.1763      6.2476      6.5165
H     -5.9203     15.0195      7.4409
H      5.4518      3.3644      7.9745
H      0.5605      9.4587      6.1492
H     18.7061     12.2804     18.4447
C      1.8511      4.8009      6.8826
H     -0.1003      3.9920      2.0695
C      3.6480      5.1690      5.0678
C     -9.6374     15.7498      9.1582
H     22.0117      8.5240     14.3982
C      8.3086      7.6397     10.5234
H      3.5963      5.2338      8.5990
H     11.1094      6.5648     11.0186
H     -6.0732     13.4239      6.9248
C      3.8453      2.6834      4.6379
C     17.5364      9.9570     18.5995
C     -6.3422     12.5877      8.8500
C     -5.3132      9.5066      8.5157
C      5.4242      4.3988      8.2761
C     -7.1320     13.8902      8.5626
H     -0.2731      2.7147      9.7476
H      1.3799      3.8564     -0.2879
H     19.5145      9.5099     13.3392
H      9.7949      5.7943     -0.4595
H     -0.5129      1.7855      6.0292
C     14.6383     10.1743     13.9085
H    -10.4107     17.5588      9.3567
H     -2.9722      9.6915      2.7574
268

C     19.7968      8.7539     13.8440
N     -1.7810     10.8126      1.3160
C      3.9194      1.6698      7.2159
C      1.9125      2.5951      1.6512
C      7.6775      5.1150      2.3961
H     -3.2897      7.0532      2.4361
C      7.3645      3.9010      2.9427
C      3.2049      3.8227      5.4760
C     16.1137      7.1142     19.5445
C      6.0232      1.9928      3.7956
C     -7.0898      8.1521      9.6211
C     13.9406      8.7987     13.6724
N     -0.1805      2.5994      6.4071
C      0.3873      5.9865      0.4678
O     -1.6944      2.8514      0.9275
C      3.1402      3.9274      6.9793
C     15.4645      6.0654     17.5061
C     16.4497     10.3042     16.6764
H    -11.6455     13.5882      9.7388
H     -3.6270      3.7009      5.6183
H     16.8905      6.9166     14.6963
C     16.8367      8.9704     16.1073
H     -9.0249      7.7947     10.3901
H     -6.9738      8.7893     10.4628
H      8.0646      2.9856      3.4221
H     13.1514      7.3446     10.9534
H     -1.2283      5.6613      6.5002
H      8.2384      2.4227     10.3272
C      2.8152      2.6652      7.7253
H      7.1179      1.5686      3.8141
O     14.1419     10.8184     14.9940
C     -5.1328     12.6883      8.4925
C      6.9404      6.0936      9.6396
H      2.5675     -0.0747      6.1453
H      2.9366      7.2043      9.0360
C      6.1684      3.3998      3.2391
H      6.1012      4.5265      7.5373
H     -7.8836     10.6125      9.3912
H     -8.5399      6.5620      9.0323
C     16.9928     11.0498     17.8531
C     -3.1398      8.5572      4.9757
O      1.8702      8.3809      4.8972
C     -1.4685      8.1341      6.8831
C      8.5487      8.4968     11.8323
C     20.5454      7.8718     12.7714
C      6.6744      6.7956     -0.8756
H      5.2503      4.8096      2.0474
H     17.3066     10.1555     14.4089
H      1.6286     -1.3209      3.7067
H     -5.5585      6.8167      7.5432
C      7.7589      3.3475      9.5709
C      7.2261      6.6879     10.8685
C      8.2800      6.1274      3.1939
H      8.3713      7.2492      1.7103
C     -1.1828      6.7920      4.9231
H     16.7151      8.0792     21.6486
H      2.6500     -0.4185      1.8488
H     15.3701      6.9277     13.3797
C     -3.3217     11.6446      7.1721
C      6.1646      4.9946      9.5285
O      5.7078      2.9470     10.6682
C     15.8513      7.4095     17.9704
C      4.7472      5.6855     -0.0204
C     17.3483      9.1694     14.8718
H     -3.8994      7.6719      5.3727
H      7.4479      7.6852      4.4045
H     -8.7494     13.7880     10.2412
H     -6.7012     12.2797      9.8538
H     17.7242     12.3577     16.7774
C     -0.0693      3.2049      8.6515
H     21.0994     10.6209     13.8659
C     13.2750      8.9806     12.1959
C      1.6756      1.6190      7.7279
H     -2.3383      8.0417      9.3155
C     -0.8008      6.3286      1.3531
H      5.8642      7.4004     -1.1364
C     10.0297      8.0138     12.2776
O     15.1942     10.5428     12.8277
C     -6.2680      8.4821      8.5609
C     16.8080      8.2298     20.5799
C     -9.5473     14.3776      9.5182
C      2.6994      1.5601      4.8836
H     -1.6770     11.2067      2.4284
H     -2.7912     10.2246     -0.2249
H     -7.1859     12.0139      7.0621
H    -10.1281     16.8363     10.8351
C      3.7981      3.3419      3.1957
H     -4.4409      8.9142      6.6307
C     -2.1949      8.5655      0.6041
C     11.2197      7.9128     11.4291
H     -1.8437     10.6367      5.9610
C      5.3261      2.1818      5.0566
H      4.2842      0.2116      5.6189
H     -1.1706      3.5686      0.0766
C    -10.2710     12.3984      8.7569
C     -8.2584     11.1276      8.5391
C     -2.2790      5.2772      3.4340
C     16.5920      9.3915     19.7533
C      2.5050      3.4769      2.7804
C     -8.0797      7.1291      9.8814
H     16.3584      8.6058     13.8791
H      8.2012      4.6677      4.4731
H      2.1038      5.0851     -0.8884
O      5.4969      6.3898      6.6328
C      0.6236      7.9829      4.2834
H     -8.7481     10.2105      8.2172
C     -3.1693      8.8458      3.5150
C     -2.3152      7.7442      2.8326
H     -6.4430      8.2585      7.3050
C     -2.6336      7.5268      7.3080
H      2.0727      3.7800      5.0458
H     13.3616      9.4648     10.3525
H      4.0268      4.0137     -0.5388
H     -0.4520      4.1279      8.1363
C      2.8763      1.5432      1.3848
C     -0.0921      8.5840      1.9112
O      4.8846      4.1955     -0.0900
O      7.0871      4.3337     11.5136
C     -0.4570      3.1185      1.6199
C     -0.4237      3.8147      4.2589
C     -5.6851     10.6025      7.2504
H     -3.4521      6.9797      6.9059
H     15.5771      9.2665     19.3971
H      0.4704      6.0349     -0.6826
O      0.0250      9.8234      5.6722
C     -6.9272     11.5013      7.8878
C      0.7312      7.2163      6.7384
C     15.1524      7.9415     13.9725
H     15.5527      8.4524     15.9512
C      0.6204      7.5885      2.7897
H     -4.3039     13.2611      8.9133
C      2.2664      0.5493      3.9457
C      0.3506      2.2023      7.6842
C     -2.8939     10.6480      6.3249
C     -2.6063      3.4645      5.2006
C     17.8273     12.1469     17.7520
C     -9.9818     16.8364      9.7887
C      0.5568      2.2785      1.3742
C     -1.5624      7.8118      1.5457
C     -8.9605     12.3751      8.3760
N      2.1636     -0.5596      4.4761
C      3.3878      1.4576     -0.0144
O     16.9177      6.0874     15.4971
C      9.5897      6.6998      0.1346
H     18.5868      9.8727     18.9155
H     -0.2184      1.3451      7.7858
C     -2.8915      4.7107      2.2128
C     -2.7533      7.4302      8.7100
H      1.9020      0.8492      6.6775
H      7.5368      5.1855     11.3724
H     -4.8082     10.0369      9.3081
C     -2.4247      9.9041      0.6673
H     -8.0087      6.4195     10.8058
H     -0.8518      9.3092      3.4211
H     14.3748     10.5856     11.4793
H      4.1042      0.5426      0.1034
H      1.0551      3.5617      8.7792
C     14.9026      7.4517     15.5465
H      2.9330      1.3109     -1.0784
C     13.7784      9.6273     11.2128
H      6.2961      2.2314     11.0200
H     15.7266     10.1422     17.2919
C      4.1378      7.9909      4.3136
C      7.2703      7.1457      3.3526
C     21.1439      9.4513     14.4588
C     18.7184      8.3886     14.6836
C      4.1342      5.8680      6.5283
C      1.6641      4.8561      2.4979
C      6.1634      5.8076      0.1789
C      5.4358      7.4725      4.3493
C      8.3498      6.8456      0.7383
C      3.9653      4.9265      7.7150
C      1.2801      4.8756      0.9606
H     -2.9293      5.8768      5.6280
C      6.0681      6.6480      5.5010
H     10.1402      6.5103      1.0306
H      0.4638      1.3190      0.8023
C      7.3979      5.7044      1.1630
H     -0.7335      3.2113      3.4509
O      7.3118      7.1599      5.8460
H      8.7369      9.6442     12.0882
H     21.1111      9.7440     15.5175
H      2.0593      2.8899      3.6966
H     -0.3384      9.6275      2.0549
H      2.9823      3.5742      0.1849
H      4.5102      5.2619      4.4936
C     12.4764      7.8317     11.8313
C     15.5726      6.0292     16.0037
H      1.8332      5.5590      9.1788
C     -1.8075      4.5418      4.6036
C      0.3394      6.9121      5.3346
H     17.9147      7.9728     20.3095
H      1.7566      1.8959      5.1555
C      1.0962      5.7257      4.7329
H    -10.5949     11.3945      9.3023
H      1.0213      0.2705      2.2809
H     15.9754     11.0695     16.2783
H     -0.2153      8.3051      8.5639
C     -5.1005      6.4273      8.5556
C     -8.6481     13.7935      8.4853
C      5.9891      7.4793      2.9602
C     -3.7385      9.6224      5.6594
C     -0.1767      6.4050      2.7937
C     -1.5546      6.5780      3.5336
H      4.2955      5.9266     -0.9768
H     -1.9483      2.9097      5.8781
C    -10.7888     13.7274      8.9279
C      0.4640      4.9603      3.5061
C      4.8590      3.9134      2.6289
H      1.1916      4.7526      7.8679
H     -4.3737      9.2098      7.7693
C      6.7378      3.8565     10.4398
H     -2.5857     12.3104      7.5943
H     -5.9451      9.9715      6.4616
C      2.0522      6.5761      8.8074
C     -1.7641      5.5724      5.6935
C      2.0734      0.5530      2.3406
C      0.9258      4.7986      5.7754
C      1.8904      6.5347      7.2875
C      2.2068      4.4838      0.0106
H      4.0690      1.3981      1.6609
H      4.0378      2.2051     -0.1411
H     -4.8558      5.5356      8.1737
H      7.5342      2.3527      8.9379
H      5.4685      1.3317      3.0071
C     -0.6147      8.9725      4.6849
C     -4.0014      7.2603      9.0853
H      4.2325      5.8796      0.8837
H     -4.0603      8.2386      3.1589
C     -4.5589     11.6208      7.5791
H     -2.6718      3.7510      2.3521
H     -4.5794     10.1948      4.9359
H     -6.7154     14.4120      9.5756
C     -0.3173      8.0272      7.5489
C      0.1304      3.6915      5.6262
O      8.6039      5.6494      4.3928
C     -1.5777      8.0639      5.3432
C     -6.5606     14.3253      7.1968
C      5.2464      1.9514      6.3689
C      3.3578      0.7581      6.0880
H      7.8445      6.2981      6.0541
H     -5.6433     14.9815      7.0686
H      5.0214      3.5083      8.1671
H      0.5880      9.3690      6.3780
H     18.3235     12.1843     18.6625
C      1.8259      5.0099      7.0153
H     -0.0058      3.9151      2.1809
C      3.7556      5.1745      5.1794
C     -9.6276     15.7304      9.1261
H     22.0833      8.5688     14.6711
C      8.3013      7.6031     10.5839
H      3.4102      5.4289      8.4979
H     11.2287      6.9379     10.8732
H     -6.0824     13.3489      6.9443
C      3.7163      2.5903      4.4995
C     17.4505      9.8231     18.7225
C     -6.5342     12.6324      8.7422
C     -5.1962      9.5059      8.3764
C      5.4961      4.4291      8.1947
C     -7.1709     13.8937      8.5758
H     -0.4036      2.6947      9.7187
H      1.4458      3.7434     -0.4018
H     19.1973      9.7481     13.9498
H      9.9467      5.9631     -0.5528
H     -0.8824      1.8983      5.8296
C     14.6861     10.0434     13.9261
H    -10.9430     17.2493      9.6653
H     -3.0179      9.9240      3.3017
268

C     20.0066      8.8811     14.0279
N     -1.9033     10.9198      1.2177
C      4.0502      1.5580      7.0871
C      1.8733      2.6893      1.5721
C      7.8603      5.0194      2.2898
H     -3.1376      6.9261      2.5200
C      7.1767      3.8289      2.8759
C      3.2763      3.8510      5.4669
C     16.0510      7.0918     19.5049
C      6.0127      1.9961      3.7300
C     -7.0559      8.2332      9.6031
C     13.8915      8.8656     13.7072
N     -0.0374      2.5973      6.1481
C      0.3814      5.9298      0.4317
O     -1.6133      2.8414      1.0586
C      3.0660      3.9362      6.9777
C     15.6649      6.0435     17.3173
C     16.2546     10.3534     16.8122
H    -11.5804     14.2066      9.8106
H     -3.7514      3.7487      5.2633
H     16.8021      6.4896     14.3379
C     16.7491      9.0645     16.2520
H     -9.2927      7.7714     10.3357
H     -7.3348      9.0878     10.4585
H     13.0684      7.5600     10.6137
H     -1.3850      5.2241      6.5998
H      8.6307      3.1491     10.2581
C      3.1147      2.5814      7.5382
H      7.0229      1.6664      4.0258
O     14.2277     10.7366     14.8859
C     -4.9275     12.6160      8.5250
C      7.0620      6.0014      9.6373
H      3.4647     -0.2328      6.7084
H      2.9974      6.7070      9.1764
C      5.9365      3.3259      3.1292
H      6.6694      4.4607      7.5198
H     -8.6598     10.8329      9.2425
H     -8.2639      6.6804      8.9369
C     17.1003     10.9373     17.9323
C     -3.0990      8.4902      4.8841
O      1.9149      8.4482      4.7122
C     -1.5209      7.8777      6.6673
C      8.6765      8.5192     11.7352
C     20.4842      7.7517     12.8677
C      6.5898      6.9132     -0.7732
H      4.3602      4.5190      1.8610
H     17.7269     10.1393     14.6893
H      1.9650     -1.1295      3.8160
H     -5.5089      6.9408      7.6834
C      7.8321      3.1157      9.4974
C      7.4552      6.6572     10.8393
C      8.0780      6.0216      3.3123
H      8.5585      7.5173      1.6111
C     -1.2726      6.6205      4.9058
H     16.9098      8.3860     21.4632
H      2.3670     -0.4568      2.3303
H     15.8739      7.1077     13.4490
C     -3.3211     11.7553      7.0542
C      6.1564      4.9164      9.4874
O      5.6772      2.9104     10.6329
C     15.9005      7.3837     18.0671
C      4.6906      5.4597     -0.0242
C     17.3655      9.1899     14.8607
H     -3.7939      7.4743      4.9594
H      7.7486      7.5928      4.3327
H     -9.5583     14.0328     10.5439
H     -6.7448     12.1738      9.7760
H     17.7042     12.6338     16.8273
C      0.1884      3.3377      8.7538
H     21.3575     10.2668     13.6992
C     13.5320      8.8358     12.3456
C      1.7549      1.5110      7.5974
H     -2.0841      8.0064      9.3613
C     -0.9043      6.2140      1.3981
H      5.6855      7.2846     -1.2384
C     10.0715      8.0726     12.4007
O     15.2713     10.4462     12.8729
C     -6.2038      8.5901      8.6228
C     16.8819      8.1722     20.4196
C     -9.5702     14.3118      9.2924
C      2.7809      1.6132      4.9961
H     -1.5773     10.7413      2.4121
H     -3.0057     10.1622     -0.3358
H     -7.0918     11.7642      6.7853
H     -9.8411     16.7759     11.0135
C      3.6681      3.2339      3.4199
H     -4.7534      9.0957      5.9525
C     -2.3317      8.5717      0.6049
C     11.1764      7.6309     11.5587
H     -1.8297     10.9134      6.1934
C      5.1619      2.2380      5.0386
H      4.6177      0.6416      5.9719
H     -2.0695      3.3773      0.4631
C    -10.4410     12.2067      8.7286
C     -8.2822     11.1929      8.2576
C     -2.1378      5.0996      3.3184
C     16.6171      9.4154     19.6144
C      2.2333      3.4137      2.7654
C     -8.1949      7.1776      9.8939
H     16.0020      8.7432     14.3055
H      8.5778      4.3991      4.2290
H      1.8556      5.0453     -0.9066
O      5.4327      6.3135      6.6748
C      0.5393      8.0342      4.2591
H     -8.8656     10.5802      7.4487
C     -3.1834      8.8671      3.5008
C     -2.3425      7.8147      2.8352
H     -6.2897      7.7089      7.8862
C     -2.6677      7.6371      7.3776
H      2.2415      3.5016      5.1067
H     13.7945      9.2863     10.2053
H      4.1343      4.2470     -0.9248
H     -0.3876      4.1438      8.2444
C      2.9797      1.5633      1.4029
C     -0.0339      8.6726      1.8626
O      4.7526      4.1907     -0.0880
O      7.1004      4.3808     11.6727
C     -0.5263      2.9764      1.7525
C     -0.5179      4.0652      4.2697
C     -5.5538     10.5271      7.2955
H     -3.4229      7.6045      6.7178
H     15.6415      9.7494     19.3760
H      0.5220      6.1544     -0.4961
O      0.0972      9.8497      5.8133
C     -6.8507     11.3549      7.7459
C      0.5870      7.1276      6.7008
C     15.1450      7.7723     13.9194
H     15.5353      8.2018     15.9292
C      0.4704      7.6632      2.8408
H     -4.3193     13.1615      9.1937
C      2.3812      0.6729      3.8718
C      0.3801      2.2662      7.5884
C     -2.8837     10.5986      6.4552
C     -2.7216      3.3889      5.3413
C     17.7877     12.0901     17.7180
C     -9.7779     17.0465      9.7103
C      0.6039      2.2122      1.2656
C     -1.4489      7.8264      1.5581
C     -9.1637     12.3914      8.3041
N      2.0435     -0.4721      4.5911
C      3.4145      1.5579     -0.0357
O     16.7594      6.2595     15.4561
C      9.6226      6.5542      0.1487
H     18.1894      9.2080     18.6089
H     -0.5430      1.7377      7.7443
C     -2.9173      4.7960      2.4157
C     -2.7835      7.5480      8.8143
H      1.5781      0.3412      6.9989
H      7.2026      5.3108     11.4261
H     -4.3532      9.9217      9.0408
C     -2.3241      9.9250      0.6102
H     -8.0987      6.3726     10.6510
H      1.3907      7.4255      9.1456
H     -1.2034      9.8886      4.6588
H     14.5602     10.4126     11.0440
H      4.1047      0.6789     -0.4438
H      0.6176      3.8408      9.6640
C     15.0477      7.4859     15.2273
H      2.3617      1.5709     -0.5565
C     13.8381      9.7386     11.1467
H      6.1892      2.3373     11.3059
H     15.1470     10.0193     17.1285
C      4.0622      8.0815      4.4096
C      7.4112      7.1143      3.2856
C     21.1390      9.6033     14.3252
C     18.8349      8.3374     14.9736
C      4.1756      5.9027      6.5276
C      1.7591      4.8141      2.4857
C      6.3652      5.7808      0.3358
C      5.0748      7.1981      4.3827
C      8.1925      6.8707      0.9101
C      4.1573      4.8892      7.5931
C      1.2666      5.1164      1.0466
H     -2.9211      5.7631      6.0919
C      6.1401      6.3904      5.3851
H     10.4265      6.3717      0.7368
H      0.2427      1.5641      0.5112
C      7.2893      5.6773      1.1508
H     -0.6872      3.4201      3.2199
O      7.3229      7.0450      5.8892
H      8.3023      9.4912     11.7533
H     21.6517     10.1856     15.1075
H      1.3657      3.3379      3.6187
H     -0.1217      9.4977      2.4492
H      3.2425      4.2027      0.0148
H      4.3903      5.1941      4.3881
C     12.5659      7.8218     11.7636
C     15.4913      6.0933     15.7756
H      1.6133      5.6465      9.0910
C     -1.8311      4.3823      4.7710
C      0.2673      6.9067      5.1312
H     17.8157      8.2283     20.4810
H      2.0367      2.0743      5.4804
C      1.1814      5.8043      4.8034
H    -11.0014     11.2932      9.2013
H      1.1683      0.5654      2.1810
H     16.1342     10.9239     15.6003
H     -0.7102      7.6515      8.5983
C     -4.9611      6.5189      8.5647
C     -8.5973     13.7690      8.3201
C      6.0080      7.4255      2.8856
C     -3.9247      9.8131      5.4903
C     -0.3086      6.1490      2.7163
C     -1.6164      6.4768      3.4857
H      4.1733      5.9958     -0.9491
H     -2.5101      2.5886      6.0335
C    -10.9186     13.7482      8.9780
C      0.6356      5.2133      3.4987
C      4.7667      3.7782      2.7110
H      1.2147      4.6805      8.0094
H     -4.3960      8.7934      7.8492
C      6.5763      3.7929     10.2614
H     -2.5889     12.2997      7.6019
H     -5.9735     10.3206      6.4008
C      1.9421      6.6547      8.7434
C     -1.9440      5.6370      5.6267
C      2.2470      0.6381      2.3513
C      1.0728      4.7428      5.9036
C      1.9478      6.5782      7.2401
C      2.0925      4.4745     -0.1338
H      3.6859      1.9331      2.1744
H      3.9208      2.4779     -0.1121
H     -4.3866      5.7005      8.4313
H      7.2696      2.1722      8.8887
H      5.6410      1.4772      3.0336
C     -0.4775      9.0882      4.8250
C     -4.0934      7.4098      9.3777
H      3.4965      5.6836      0.3252
H     -4.2406      8.7899      3.3789
C     -4.7321     11.7223      7.6796
H     -3.2666      3.8618      2.4023
H     -4.3378      9.9784      4.6182
H     -7.2938     14.4830      9.5355
C     -0.2587      7.6771      7.5551
C      0.2550      3.7036      5.4529
O      8.6605      5.4599      4.4128
C     -1.6684      8.2231      5.3217
C     -6.7148     14.2179      7.1724
C      5.2607      1.8944      6.3885
C      3.3755      0.7357      5.9868
H      7.9999      6.8534      5.2473
H     -5.6725     14.6167      7.3086
H      5.5672      3.2202      8.6426
H      0.3784      8.9819      6.0775
H     18.5895     12.6483     17.9343
C      1.7511      4.8953      7.0823
H     -0.6493      4.1739      1.7132
C      3.7038      5.2515      5.1910
C     -9.5761     15.8434      9.0262
H     22.1512      9.1104     13.5640
C      8.3888      7.6111     10.5430
H      3.9135      5.1552      8.6540
H     10.7623      7.3645     10.6321
H     -6.6009     13.5341      6.2909
C      3.9471      2.6405      4.7791
C     17.4448      9.9069     18.7255
C     -6.4648     12.4635      8.7520
C     -5.1404      9.5521      8.3181
C      5.6645      4.2848      8.2047
C     -7.1725     13.8721      8.6025
H     -0.6488      2.5978      9.4011
H      1.8319      3.5032     -0.4233
H     19.6027      9.6884     13.3874
H      9.5038      5.5111     -0.1001
H     -0.9574      1.9371      6.0028
C     14.5469     10.2640     13.8232
H    -10.5433     17.5837      9.2184
H     -3.4678      9.9150      3.4214
