268

C     32.7235     -3.7921     13.7438
C      4.0381      1.5578      7.0256
C      2.1280      2.9065      1.1775
C      7.2023      4.8185      2.0691
H      9.2116     -9.1987      2.8125
C      7.1435      3.5288      2.6617
C     15.8981     -8.9131      5.4429
C      6.8468     -3.1641     10.1372
C     28.9080     -5.6365     19.4809
C      5.8618      1.7797      3.9306
C      6.4995     -4.4709      9.4520
C     26.6590     -4.0637     13.8616
N     -0.2157      2.9054      6.4305
C      0.5882      6.0046      0.6160
O     -1.4875      1.8998      2.0203
C     16.0249     -8.9205      7.0094
C     28.5327     -6.5701     17.4652
C     29.5632     -2.1068     16.5415
H      1.5774      0.3125      9.9356
H      9.0920     -9.1199      4.8567
H     30.5615     -6.1079     16.1445
H      6.4394     -1.2767     11.0733
C     29.8526     -3.6433     16.0262
H      7.5966     -2.4322      9.6433
H      7.7948      3.3222      3.4634
H     25.9358     -5.0974     10.8382
H     11.5736     -8.0661      6.8515
C      3.0337      2.5821      7.5094
H     -2.7244     10.0126     -0.2085
H      6.7075      1.0565      4.1000
O     27.2904     -2.5564     15.4269
C      8.1769     -0.3832      8.6941
C     19.7815     -6.8939      9.6783
H      2.8883      6.8507      9.3727
C      5.9842      2.7587      2.7179
H     19.1944     -7.5276      7.3625
H      7.3776     -3.5659     11.0307
H      4.7158     -2.7620      8.5609
H      5.1132     -6.0384     10.5117
C     30.6539     -1.9969     17.6795
C     10.0196     -4.2024      4.8449
O      2.0192      8.5508      4.8188
C     -1.7412      7.8460      7.1874
C     21.7125     -4.7758     11.9600
C     33.4725     -4.8554     12.8818
C      6.3607      7.2991     -0.6485
H      5.1534      4.5108      1.8330
H     30.2940     -2.6462     14.2891
H      1.5329     -0.5353      2.4182
H     -4.4563      5.4920      8.2827
C     20.0448     -6.3429     11.1481
C      7.7020      5.8394      2.9796
H     34.3144     -3.8124     15.0900
C     11.7749     -6.3624      5.1090
H     28.4409     -4.3185     20.6772
H      4.6551      1.0831      1.8606
H      4.6328     -1.9587     10.6675
H     28.6025     -5.6757     13.7592
C      9.9519     -1.2912      7.0402
C     18.7423     -7.2980      8.9154
C     28.8946     -5.2905     18.0221
C      4.5357      6.1808      0.5518
C     30.6377     -3.4520     15.0577
H      9.2086     -5.1001      4.9225
H      8.6520      7.8075      3.1520
H      3.3214      1.2690     10.3357
H      6.2618     -0.4208      9.7326
H     30.7413      0.1151     17.7269
C      0.0006      3.1959      8.8366
C     26.4241     -4.4425     12.4431
C      1.7575      1.8025      7.5174
C     -0.6471      6.2634      1.3911
H      5.7555      8.0236     -0.8657
H      6.1186      4.2492      4.3280
H      5.8547     -2.4355     11.9856
C     22.9483     -5.3789     12.6692
O     26.9125     -1.6178     13.3032
C      6.4313     -4.1793      7.9739
C     29.3687     -4.4813     20.2621
C      3.1720      1.4157      9.3793
C      3.2723      1.6674      4.7466
H     -1.1274     10.3920      0.5654
H      5.5623     -0.6727      6.9109
C      3.8030      3.4123      3.2153
H      8.8334     -2.7289      5.9112
C     -2.2508      8.4137      0.6991
C     24.1631     -5.5300     11.8306
H     11.2431     -3.1098      6.7609
C      5.3093      2.7100      5.0572
H     30.7345     -0.3513     18.7647
H      8.8107      0.3824      8.5973
C      2.6616     -0.8637      8.8065
C      4.8565     -1.7627      8.6066
C     10.5948     -7.6764      3.6476
C     29.6268     -3.2027     19.2716
C      2.3723      3.6296      2.6435
C      5.0673     -4.8396      9.9018
H      2.8415     -0.9603     10.0629
H     28.7997     -3.9932     14.2855
H     10.0341     -7.7872      1.8917
H      2.6215      3.6873     -0.7244
O      5.3923      6.4883      6.2340
C      0.7271      7.9773      4.7435
H     29.3085     -2.3088     19.6431
C     10.3651     -4.0474      3.5519
C     10.7431     -5.2612      2.9973
H      5.4119     -3.9929      7.7775
C     -2.8000      7.6845      7.7372
H      0.9440      2.3901      5.0332
H     28.0774     -4.9522     10.7350
H      6.0993      1.9442      1.7602
H      0.7362      3.8220      9.5490
C      3.4343      2.0749      1.0114
C     -0.1440      8.3626      2.0921
C     -0.7634      2.7603      1.7845
C     -0.1817      3.7934      4.0757
C      7.5186     -2.0404      7.1923
H      1.4288     -0.3912      4.3566
H     -3.5855      7.9171      6.9956
H     28.6934     -3.0145     18.4866
H      0.4979      6.1980     -0.4732
O      0.3430      9.4652      6.3352
C      6.1393     -1.2822      7.7760
C      0.4346      6.7544      6.8417
C     28.0927     -4.8413     14.2356
H     28.7127     -4.4380     15.9679
C      0.7075      7.5214      3.1171
H      8.7731     -0.8203      9.4390
C      2.8729      0.9714      3.4133
C      0.3656      2.3899      7.6759
C     10.7649     -2.0495      6.1000
C      9.9984     -9.5493      4.9071
C     31.3324     -0.7981     17.9788
C      3.1089      3.9832      9.6913
C      0.7682      2.2353      1.0025
C     -1.3253      7.6244      1.6354
C      3.9247     -0.8524      8.2398
N      1.9612      0.0163      3.4355
H      3.5472      1.5127     -1.1528
C      3.1433      1.1466     -0.1806
O     29.9296     -6.6287     15.6721
C      9.4133      6.4791      0.8289
H     31.4770     -3.6234     19.1662
H     -0.3415      1.4808      7.6597
C      9.7477     -8.1405      2.7887
C     -2.8905      7.4965      9.0471
H      1.6123      0.9884      6.7027
H      7.3550      4.9785      0.0130
H      8.0113     -3.9047      6.3845
C     -2.0213      9.6707      0.5827
H      4.0604     -5.2845      9.4696
H      1.1309      7.5194      8.8466
H     -0.4531      9.6380      4.4947
H     28.2215     -3.7949     12.2168
H      2.1823      0.7296     -0.5603
H     -0.8481      2.7015      9.5722
C     27.9487     -5.2499     15.6713
H     18.2353     -6.3178      8.3500
C     27.7233     -4.6131     11.7411
C      5.7984     -2.2222     10.8754
H      3.0672      3.6095     10.6760
H     28.6540     -2.0387     16.8747
C      4.1850      8.4024      4.3354
C      7.6806      7.1811      2.5012
C     33.7614     -3.0520     14.4652
C     31.7071     -4.3811     14.5982
C      4.1055      6.0200      6.4549
C      1.9950      4.9757      2.5684
C      5.8213      6.3802      0.2321
C      5.5148      7.5976      4.1119
C      7.9463      6.8430      1.0440
C     17.1536     -8.0194      7.4983
C      1.6166      5.3307      1.1088
H      9.8642     -7.2111      5.8204
C      6.0903      6.8253      5.0709
H      9.3884      5.3021      0.2989
H      0.9743      1.2073      1.0447
C      7.0698      5.6175      0.7674
H     -0.6838      3.1212      3.2927
H     -1.8181      7.6137      9.5156
O      7.4357      7.2181      5.7142
H     21.6435     -3.6606     11.6427
H      1.6456      3.1145      3.2466
H     -0.2514      9.4089      2.4611
H      3.3429      4.3300      0.4998
H      4.4215      5.2073      4.4146
C     25.4198     -5.0670     11.7609
C     28.6756     -6.6581     15.9555
H      1.2278      5.6965      9.6049
C     11.1066     -8.3454      4.8283
C     13.1862     -6.2151      5.4061
H      4.6276     -4.1986     10.7096
H      3.2769     -0.2122      5.4296
C     14.2995     -7.2952      4.8647
H      2.7256      0.2897      1.4534
H     29.5044     -1.3363     15.7646
H     -0.3640      6.9514      8.7541
C     -4.8790      6.0809      9.0132
C      4.2838      0.7298      8.1758
O      6.0784      3.8456      5.1251
C      6.4514      7.7721      2.9212
C      9.7401     -2.9062      5.3641
C     -0.1952      6.2455      2.7754
C     11.4240     -6.4725      3.6508
H     30.1168     -4.6394     20.8100
H      3.9924      7.1680      0.1704
H     10.6608     -9.7304      5.8144
C      1.9957      0.6033      8.7536
C      0.6129      5.0308      3.3742
C      4.9242      3.8740      2.7361
H      0.8405      4.3857      7.2725
H      7.4363      5.2285      4.9689
H     10.8110     -0.9856      7.8303
H      7.4627     -1.9526      6.0292
C      1.8976      6.5868      8.8878
C     11.0321     -7.2745      5.9211
C      3.5042      1.1009      2.1095
C     14.5616     -8.4960      5.6212
C      1.9422      6.4829      7.4107
C      2.4532      4.1442      0.2922
H     -1.5022      5.5624      1.3800
H      4.3469      2.6025      0.6771
H      3.7875      0.2441     -0.2676
H     11.5553     -1.5490      5.7313
H      5.0058      0.9866      3.3855
C     -0.4146      8.8554      5.2559
C     -3.9796      6.7436      9.6251
H      4.0735      5.7233      1.2406
H     34.1244     -2.6859     13.6309
C      8.6656     -1.3507      7.5938
H      9.8138      6.8162      1.7737
H      5.7511      1.6288      9.2485
C     -0.5270      7.1509      7.6447
C      0.6703      3.4050      5.3049
O      8.1326      5.6462      4.2675
C     -1.7197      8.1958      5.6681
C      6.3183      1.4589      7.2301
C      5.3368      2.0135      6.4734
C      3.2675      1.0151      5.9328
H     18.8313     -9.2165      7.3091
H      8.4724     -3.8618      8.1632
H      0.9695      8.7337      6.6392
H     32.3086     -0.3294     18.4332
H      1.8201     -1.4688      8.6957
C      1.7775      4.8919      7.0595
H     -0.9806      3.7509      2.0312
C      3.7143      5.3676      5.1907
C      3.0722      2.7818      9.1506
H     33.6301     -2.2697     15.0969
C     21.3811     -5.5209     10.8438
H     16.6618     -7.6459      8.1781
H     23.7388     -5.3997     10.7908
H      7.3043      1.2104      7.1558
C      3.7505      2.9742      4.6765
C     30.6128     -3.3414     18.3610
C      6.6440     -0.3663      8.7966
C      7.5872     -3.4167      7.4016
C     18.4327     -8.3452      8.0062
C      5.7415      1.1233      8.4029
H     -0.6135      3.9617      8.2099
H     -3.0114      8.7432      8.9644
H      0.6736      2.3591     -0.1902
H     31.9421     -3.0001     13.3140
H     20.8127     -7.0013     11.5967
H     -1.1452      2.5662      5.6470
C     26.9585     -2.5751     14.2563
H      3.1029      5.0522      9.2041
H      9.7711     -3.6840      2.7943
