266

C     19.7212      8.8445     13.6671
C      4.1154      1.2517      7.0868
C      2.4449      3.0462      1.0254
C      7.2342      4.6262      2.4210
C      7.4046      3.3573      2.7241
C      3.5686      3.9918      5.3237
C     -6.0044      9.5976     10.6400
C     15.8367      7.3770     19.3864
C      5.9670      1.7256      4.0434
C     -6.6529      8.7103      9.5938
C     13.7559      8.6779     13.8128
N     -0.0955      2.8310      6.5789
C      0.5450      6.0492      0.6523
O     -1.6186      2.5905      1.4484
C      3.5516      3.7689      6.7002
C     15.5466      6.3010     17.3394
C     16.4419     10.6820     16.8881
H    -11.5645     14.1548      9.9521
H     -3.2322      3.4345      4.5407
H     17.3446      6.2941     14.7366
H     -7.0353     11.7125     10.8931
C     17.0679      9.5601     16.2636
H     -5.1894     10.3393      9.8554
H      7.9300      3.4131      3.7505
H     12.6415      7.1892     10.6760
H     -1.1178      5.3457      6.5447
C      3.3166      2.5316      7.6494
H     -2.4752      9.8790     -0.8450
H      6.5970      0.8100      4.1011
O     14.7866     10.5991     14.8048
C     -4.9044     12.8068      8.7975
C      6.8629      6.3172      9.3981
H      3.1277      6.4577      9.3336
C      6.1748      2.3694      2.5591
H      6.5056      4.5440      7.1676
H     -5.5063      9.0256     11.2353
H     -8.0208      9.9965      8.1306
H     -7.7330      6.8781     10.2508
C     17.6392     10.8466     17.7162
C     -3.0367      8.4281      5.2158
O      1.8624      8.7954      4.6641
C     -1.6212      8.0801      7.1285
C      8.6244      8.0231     12.0513
C     20.4828      7.7049     13.0581
C      6.4944      6.9952     -0.7524
H      5.5651      3.6702      1.4297
H     17.8832     10.3635     14.4093
H      1.4088     -0.6399      2.9857
H     -4.7808      6.6205      7.4294
C      7.1989      6.8169     10.9025
C      7.8451      5.7284      3.2821
H     21.7645      8.9731     14.5225
C     -1.3501      6.7634      5.0856
H     16.0477      8.2688     20.9694
H      4.4356      0.0029      2.1663
H     -7.9211     10.5847     10.3738
H     15.3797      6.9171     13.7481
C     -3.0782     11.5212      7.5407
C      5.8459      5.4976      9.0876
C     15.7710      7.6908     17.8211
C      4.6185      5.9198      0.3565
C     17.8567      9.5145     15.2042
H     -3.3196      7.6724      5.9452
H     -9.3374     14.2882     10.5456
H     -6.6707     12.1177      9.6975
H     17.7079     12.8232     17.3830
C     -0.1106      3.6044      9.1487
C     13.1798      8.1675     12.3492
C      2.0074      1.7955      7.8439
C     -0.6296      6.2564      1.4674
H      5.4929      7.5216     -0.8733
H     -1.5276      2.4797      4.6150
H     -7.4877     10.4788     11.9839
C      9.8492      7.3956     12.7986
O     13.9832     10.7788     12.7167
C     -6.3041      8.8246      8.3387
C     16.4830      8.4428     20.0954
C     -9.3379     14.2426      9.4660
C      2.5825      1.8569      4.3959
H     -0.5624      9.7365     -0.1587
H     -7.1561     12.3531      6.9707
C      4.0555      3.5106      3.1163
H     -4.2296     10.2925      5.9274
C     -1.9988      8.4755      0.5497
C     10.7778      6.8168     11.9761
H     -2.6298     10.0069      7.8674
C      5.0183      2.1890      4.9983
H      3.8982     -0.2505      5.5568
H     -4.6244     13.8843      8.5863
C    -10.2618     12.3598      9.1334
C     -7.9592     11.1212      8.2273
C     -2.3206      5.1792      3.3049
C     16.8210      9.6748     19.4286
C      2.6326      3.6797      2.4196
C     -8.0450      7.8311      9.7089
H     -9.5885     12.3685     10.0083
H     16.1478      8.6949     14.1579
H     -4.1699      5.1246      2.1207
H      1.5580      3.7934     -0.6873
O      5.2967      6.9020      6.6732
C      0.4162      8.0312      4.3692
H     16.4255     10.5094     20.0740
C     -2.9779      8.4106      3.6472
C     -2.0541      7.6739      2.8279
H     -6.7865      8.3005      7.5415
C     -2.6521      7.6739      7.9295
H      1.8934      2.5888      5.1440
H     14.6051      8.0570     10.4387
H      6.2210      1.6858      1.8425
H      0.6248      3.5163      9.9712
C      3.4758      1.8574      0.9437
C     -0.0690      8.5136      2.0645
C     -0.5045      3.4195      1.6317
C     -0.0958      3.9903      4.4429
C     -5.4627     10.9677      7.3181
H      2.0541     -0.4056      4.4976
H     -3.0919      6.7737      7.4699
H     15.6682      9.2715     18.8401
H      0.7309      6.4556     -0.3647
O     -0.0159      9.5619      6.2319
C     -6.6787     11.6353      7.6893
C      0.6699      7.4480      6.9231
C     15.1032      7.9745     14.0426
H     14.9662      8.4771     16.2827
C      0.4577      7.6499      3.0733
H     -4.4988     12.8896      9.7604
C      2.7057      0.9888      3.1996
C      0.5499      2.5798      8.0630
C     -2.3707     10.2433      6.7566
C     -2.1121      3.3675      4.9749
C     18.3086     12.0342     17.6995
C     -9.5047     16.6858      9.9435
C      0.6382      2.6055      1.0175
C     -1.2482      7.6380      1.5438
C     -8.7454     12.1989      8.6892
N      2.1003     -0.0852      3.5402
H      3.6762      1.3100     -0.9652
C      2.8066      1.4271     -0.3198
O     16.9335      6.6462     15.6015
C      9.1374      6.6564      1.0380
H     18.9891      9.2570     18.7592
H     -0.4432      1.7083      8.1905
C     -3.0843      4.5635      2.4127
C     -2.4205      7.1610      9.3123
H      1.8647      1.3129      6.9635
H      7.7083      4.4875      0.2117
H     -5.0641      8.7297      6.7212
C     -1.6381      9.4351     -0.1198
H     -8.1087      7.1967      8.7902
H      2.3040      8.1317      9.3804
H     -0.7202      9.8445      4.5420
H     15.3749      8.8475     11.3023
H      1.8465      1.6248     -0.7827
H     -0.9738      3.6242      8.9987
C     14.9231      7.5670     15.5932
H      4.8609      5.1713      9.5050
C     14.1135      8.4408     11.2053
C     -7.0904     10.5168     11.0112
H     -9.6866     16.1570     10.7544
H     15.4597     10.5022     17.6110
C      4.4280      8.4564      4.3411
C      7.5101      6.9796      2.8123
C     20.9480      9.6902     14.2591
C     18.9191      8.6765     14.9154
C      3.8735      6.2217      6.2989
C      1.9052      5.1551      2.5639
C      5.9511      5.6394      0.2907
C      5.5862      7.4743      4.2171
C      7.7535      6.6990      1.1492
C      4.3018      4.9554      7.3242
C      1.4552      5.2103      1.1991
H     -2.5894      5.1835      6.0161
C      6.2306      7.1394      5.6574
H      9.5241      5.7253      0.7694
H      0.2575      1.4856      1.6739
C      7.1459      5.3791      0.9470
H     -0.1906      2.8716      4.0811
H     -2.5039      6.1198      9.7164
O      7.5553      7.0039      5.4730
H      8.7390      9.0751     11.8992
H      1.9466      2.9544      3.2971
H     -0.3087      9.5578      2.1280
H      3.0530      3.6617     -0.5820
H      4.6112      5.8701      4.5249
C     12.1987      7.1871     11.7559
C     15.6887      6.3659     15.9035
H      1.3953      6.4432      9.1362
C     -1.5472      4.5672      4.4409
C      0.3089      6.9721      5.4133
H     -8.9117      7.9089     10.6311
H      2.5306     -0.1555      5.8803
C      1.3202      5.9795      4.9874
H      2.7272      0.0075      1.4144
H     16.7716     11.5595     16.1257
H     -0.4092      7.6333      9.0712
C     -5.0429      6.7748      8.5642
C     -8.3873     13.5277      8.5513
C      6.3388      7.5928      3.1212
C     -3.3027      9.8553      5.6056
C     -0.1795      6.1759      2.9915
C     -1.5596      6.4547      3.5129
H     17.6297      8.4240     20.5738
H     -2.1992      3.5036      6.0831
C    -10.7825     13.7781      9.0412
C      0.6894      5.0452      3.3878
C      5.0124      3.1998      2.1386
H      2.0843      4.8874      8.1583
H     -4.5141      8.1847      9.2830
H     -2.5539     12.3844      7.7924
H     -5.5281     10.7307      6.2011
C      2.0995      7.0449      8.7037
C     -1.7358      5.4228      5.6305
C      3.4665      0.8278      1.8853
C      1.2729      4.9656      6.1358
C      1.9777      6.8109      7.3168
C      2.2365      4.0808     -0.0327
H     -1.3537      5.3949      0.8948
H      4.4321      2.4302      0.7069
H      2.6491      0.4177     -0.4592
H     -1.2520     10.8172      6.6787
H      5.0734      1.0261      3.5209
C     -0.5952      8.9185      5.0252
C     -3.7787      7.3799      9.5415
H      3.5721      5.5457      0.5035
H     21.3804     10.2797     13.4469
C     -4.4028     11.7136      7.8771
H      9.5962      6.6994      2.0080
H     -2.9584     10.6248      4.7131
H     -6.3190     14.6872      9.5792
C     -0.3835      7.7751      7.7287
C      0.5887      3.8429      5.7877
O      8.4565      5.2581      4.3976
C     -1.7344      8.1714      5.5256
C     -6.3745     14.6627      7.5236
C      5.2737      1.7128      6.3566
C      3.2765      0.5829      6.0863
H      7.7010      7.6584      4.7575
H     -6.0442     15.6578      7.8526
H      5.8128      3.7556      8.3012
H     -4.0337      9.5900      8.1034
H      0.8229      8.9168      6.5696
H     19.2232     12.4104     18.2708
H    -10.8507     11.5296      8.9817
C      1.6010      5.4461      7.3938
H     -0.5425      4.3694      1.5485
C      3.7051      5.5122      5.0554
C     -9.2769     15.7436      9.0839
H     20.6143     10.0987     15.1276
C      8.3702      7.4454     10.7896
H      3.6902      5.3189      8.2057
H     10.1240      6.5253     11.0423
H     -5.6935     14.2592      6.9460
C      3.7851      2.8464      4.5030
C     17.9271      9.5124     18.3164
C     -6.2822     12.7275      8.8978
C     -5.2077      9.4394      7.7205
C      5.7886      4.9044      7.8028
C     -6.9517     13.9898      8.7280
H      0.3472      4.3568      8.4282
H     -1.9504      7.8494     10.1300
H      0.6634      2.1802     -0.0629
H     19.3775      9.6319     12.9670
H     -0.3896      2.0895      6.0404
C     14.0935     10.1505     13.8598
H    -10.4911     17.2665      9.5824
H     -2.8787      9.4337      3.4459
