266

C     19.6458      8.6548     13.4488
N     -2.6167     10.5221      1.9924
C      3.8185      1.7546      6.9675
C      2.0007      2.3488      2.0610
C      7.0712      4.9487      2.2315
H     -2.7837      6.2019      2.3093
C      7.3009      3.4661      2.1880
C      3.4802      4.0866      5.4046
C     16.4119      7.3973     19.2538
C      6.2752      1.9754      3.9126
C     -6.7925      8.4941      8.8860
C     13.4533      8.5189     13.8615
N      0.2244      2.7469      6.3230
C      0.5445      6.1123      0.6023
O     -1.8942      2.7558      0.9780
C      3.4677      4.0327      6.9193
H     13.5129      7.0703     11.1597
C     15.7983      6.2468     17.3560
C     16.6804     10.4266     15.9149
H     -2.8348      3.8643      7.2509
H     16.8528      6.0438     13.9925
C     16.8434      9.0248     15.9386
H     -7.9430      7.1869     10.0116
H    -10.0197     17.8289      9.1845
H     -1.3206      6.0697      7.1663
H     -7.0981     14.3347      9.3724
C      2.9779      3.0213      7.8112
H      7.4901      1.5609      3.7419
O     14.4719     10.4661     15.7095
C     -5.2521     12.0421      9.2701
C      6.5472      6.0285      9.5261
H      3.8207     -0.0798      5.4728
H      4.0620      5.7852      8.4901
C      6.0984      3.0533      2.8413
H     -9.9398     11.6074      9.4600
H      2.5505      8.2011      9.0448
C     17.2208     11.0065     17.0689
C     -2.8068      8.8379      5.0892
O      2.0611      8.7277      4.6334
C     -1.2047      8.2069      7.3238
C      8.6055      7.9168     11.8374
C     20.3131      7.5729     12.6472
C      6.4536      7.0102     11.8333
H      4.7366      3.9639      1.3441
H     16.7511      9.4272     13.9089
H      1.5740     -1.2640      5.6855
H     -5.8445      6.5594      8.4072
C      7.7989      2.9650      8.7520
H      0.0903      1.1890      2.3745
C      7.2580      6.2745     10.8119
C      7.7958      5.8339      3.0039
C     -0.9511      6.8786      5.3402
H     16.6382      9.2604     20.8601
H     15.9502     10.8914     15.2171
H      2.3718      5.3421      0.5267
C     -3.4628     11.0730      7.8565
C      6.0663      4.5941      9.1273
C     16.0621      7.7710     17.8358
C      5.0041      5.1230     -0.6662
C     17.4238      8.8432     14.7364
H     -3.5391      8.2002      5.8387
H      8.0444      7.8204      4.0783
H     -9.7550     14.3366     10.6231
H     -7.5185     10.5910      9.1141
H     18.6696     12.7464     16.3423
C     -0.7253      3.3937      8.3150
H     20.8068     10.3021     14.5199
C     13.2245      8.6099     12.3148
C      1.5268      2.4155      8.2626
H     11.0914      5.8123     12.0532
C     -0.5382      6.1422      1.6214
H     -2.0786      2.3638      6.1015
H     18.9048      9.0429     12.6794
C     10.2355      7.3781     12.6935
O     15.2107     10.5087     13.6561
C     -5.6851      8.4292      8.0228
C     16.8420      8.8610     19.9293
C     -9.7725     14.2686      9.6770
C      2.3809      1.1237      4.9192
H     -1.5912     10.4940      2.4820
H     -7.1989     12.6777      6.6618
H      3.4689      6.7765      9.3045
C      4.0435      3.2695      3.1069
C     -2.4097      8.3397      0.9871
C     11.5082      6.9239     12.0132
C      5.5605      2.1534      5.0961
H     17.1407     12.8891     16.2603
C    -11.1053     12.6858      8.3207
C     -8.6332     11.3292      7.5238
C     -2.1748      5.0044      4.1652
C     16.5669      9.9681     19.1891
C      2.5924      3.4020      2.7016
C     -7.3778      7.1855      9.1613
H    -11.3677     12.4227      9.5191
H     15.0906      7.4434     13.1462
H      0.0887      3.1981     -0.3579
O      5.8414      6.6049      6.4745
C      0.7026      8.2503      4.5785
H     -8.5308     11.9677      6.5199
C     -2.8234      8.4525      3.5924
C     -2.4175      7.1012      2.9534
H     -4.9519     10.1253      8.6932
H      8.5109      3.6574      2.0043
C     -2.4688      8.5274      7.9834
H      3.9383      3.9995      0.5693
H     -0.8610      3.1039      9.3805
C      3.1537      1.2931      2.1793
C     -0.2547      8.3731      2.1198
O      3.8679      3.9804     -0.2838
O      7.4841      3.7257     11.0174
C     -0.4008      2.9807      1.7345
C      0.3944      3.8518      4.0623
C     -6.0249     10.7198      7.3178
H     15.5030     10.1837     19.0238
H     -0.7412      9.8177      4.3068
H     12.3133      7.9100     10.5624
O      0.3703     10.1423      6.0277
C     -7.2587     11.2070      8.2775
C      1.0596      7.4854      6.8623
C     14.2559      7.3216     13.8564
H     15.4909      8.1572     15.4428
C      0.4686      7.5644      3.0858
H     -4.6107     12.7769      9.3223
C      2.1281      0.0273      4.0242
C      0.4451      2.9199      7.7105
C     -2.7215     10.6060      6.7898
C     -2.5069      3.3535      6.2033
C     17.7167     12.4008     17.0233
C     -9.8361     17.1498     10.0471
C      0.6657      2.1360      2.1630
C     -1.4020      7.4836      1.8534
C     -9.5942     12.1560      8.3716
N      1.8039     -1.1583      4.7232
C      3.7667      1.0346      0.7137
O     16.8780      6.3321     15.0485
C      9.2947      6.1554      0.2624
H     -6.9592      9.0949      5.9966
C     -2.2569      4.0325      3.3012
C     -2.7342      8.4986      9.2460
H      7.4352      2.4067      7.6785
H      2.4418      0.3299      7.1173
H      7.5692      4.2678     11.7699
H     -4.8716      9.6418      6.3692
C     -2.9151      9.5508      1.0881
H     -8.1530      6.9653      8.2616
H      1.5250      6.9023      9.2909
H     -0.2926      9.5358      2.3550
H     14.1882      9.3849     10.5326
H      3.8541      0.0755      0.8209
H     -1.2013      2.9467      0.1561
H     -1.3493      2.6843      7.8709
C     14.7356      7.2037     15.2775
H      2.8841      1.0827      0.2020
C     13.8640      9.5594     11.6186
H      7.4800      5.4062     11.1800
H      1.1783     -1.9598      4.3523
C      4.2632      8.6169      4.3430
C      7.8523      7.1645      3.0161
C     20.0878     10.1855     13.8584
C     18.5357      7.9786     14.6930
C      4.5140      6.3214      6.3081
C      1.9641      4.8937      2.4676
C      5.9693      5.8961      0.0360
C      5.5711      7.8528      4.1245
C      7.8948      6.3380      0.3776
H     14.5613     10.3819     11.9083
C      4.2911      5.2362      7.4621
C      1.5513      4.8720      1.0250
H     -3.1701      8.1632      7.1012
C      6.2938      7.2953      5.2759
H      1.3265      1.0543      5.3831
H     -2.8570      4.1424      2.3117
C      6.9098      5.4184      0.7633
H     -0.6781      3.6164      3.4294
O      7.5289      7.2375      5.4081
H      9.0211      8.7895     11.9300
H     20.4051     10.6096     12.9617
H      1.5235      3.2559      3.7379
H      1.3944      4.4807     -0.7671
H      4.7191      5.4737      4.0116
C     12.6416      7.6218     11.4265
H      6.5353      4.8610      7.3809
C     15.6348      6.1186     15.5499
C     -1.9277      4.7151      5.6297
C      0.6284      7.0112      5.3711
H     -7.5948      9.0549      8.8373
H      2.2970      2.0913      4.5007
C      1.5093      5.9459      4.8944
H      1.4966     -0.5765      2.2282
H     15.1054      9.8020     16.3033
H     -2.3232      8.1889     10.1310
C     -4.7950      7.0748      8.2208
C     -9.0331     13.5582      8.3244
C      6.2449      7.7077      2.9626
C     -2.8638     10.2231      5.4575
C     -0.2486      6.0686      2.9959
C     -1.6544      6.2093      3.8748
H     -2.8157     11.3265      8.8158
H      1.9271      2.7536     -0.0812
H      5.3555      4.6712     -1.4340
H     -3.5731      3.6620      5.7952
C    -11.0582     14.0598      8.8768
H     -1.8715     10.9199      7.3065
C      0.9025      5.2215      3.6243
C      4.8921      3.5060      2.2225
H      1.1135      4.3627      7.7603
H     17.9367      8.4334     19.8558
C      7.3369      4.0156      9.5799
H     -2.9377     11.5610      1.8968
H     -6.1126     11.1359      6.3271
C      2.4965      7.1256      8.8892
C     -1.4657      5.7783      6.2212
C      2.4580      0.0669      2.4852
C      1.2849      4.8453      5.9245
C      2.3800      6.8887      7.2491
C      1.2754      3.7077     -0.0608
H     -1.5818      5.3776      1.3598
H      3.8363      1.5041      3.1056
H     -3.3778      9.3040      9.3826
H      4.4303      1.7787      0.5233
H     -4.2633      7.0137      7.3132
H      8.8335      2.7104      8.8890
H     -1.8619     10.6723      5.0736
H      6.3174      1.0377      3.5708
C     -0.4121      9.3140      5.2460
C     -3.9922      7.3992      9.3417
H      4.2179      5.5603     -1.0755
H     -3.6816      8.8677      2.9213
C     -4.8900     11.0538      8.1887
H     -2.4196      2.8597      3.9020
H     -3.7245     10.7601      4.7970
C      0.3126      8.1145      7.6981
C      0.2995      3.7458      5.5208
O      8.4123      5.4195      4.1612
C     -1.4089      8.3181      5.8116
C     -6.9361     13.5192      7.2270
C      5.2901      2.0039      6.5715
C      3.2197      0.5290      6.1383
H     -5.7143     13.4875      7.1858
H     -8.2925     15.7794      9.0753
H     -5.2475     11.4160     10.2790
H      0.1184     10.5926      6.9236
H     18.1111     12.9660     17.7726
H      1.0395      8.4521      8.5264
C      1.8419      5.2469      7.0664
H     -0.2379      4.0052      1.4116
C      4.0203      5.2942      4.8915
C     -9.4264     15.7302      9.3235
H     19.3943     10.6378     14.4917
H      0.3857      5.6938     -0.4414
C      8.4218      7.1972     10.5747
H    -10.2840     16.7142     10.8880
H     12.0490      7.1219     12.7420
C      4.3646      2.9530      4.5968
C     17.5780      9.9015     17.9526
C     -6.7304     12.3227      9.1250
C     -5.8942      9.1485      6.8279
C      5.6127      4.4987      7.7463
C     -7.2623     13.5864      8.5739
H     -0.6434      4.5312      7.8418
H     -3.6833     10.1365      0.2320
H     -7.2135     12.5473     10.1544
H      9.7623      5.1573      0.8050
C     14.4576      9.7447     14.2548
H     -8.9679     17.2638     10.6913
H     -1.9221      8.7415      3.3832
266

C     19.5523      8.4917     13.8338
N     -3.0827     23.2750      1.9300
C     16.7440      1.6273     19.8714
C      2.3992     15.4615      2.0939
C     20.3119      4.6368     15.0931
H      9.6468      6.2973      2.7427
C     20.7146      3.3562     15.5562
C     16.2768      4.1061     18.3593
C     16.0945      7.2646     19.5843
C     19.6966      2.1071     16.9626
C      5.8476      8.3961      9.3775
C     13.4307      8.9151     13.8489
N     -0.0879     15.2610      6.2444
C      0.7389     19.4132      0.6156
O     -1.0599     15.0946      1.2506
C     16.0253      4.1732     19.8869
H     13.0761      7.1377     11.7265
C     15.5734      6.2107     17.4177
C     17.1261     10.4354     15.9251
H      1.3545     13.9798      9.7945
H      9.5089      3.0197      4.6102
H     17.7523      5.4986     15.5414
C     16.8371      8.9120     15.9428
H      4.3171      7.0339     10.0568
H      6.1376      8.4806     10.3972
H      1.9782     17.1528      8.8190
H     10.2795      6.2565      6.9900
H      6.5104     14.8890      8.9073
C     15.7583      2.7287     20.3745
H     20.3304      2.9267     17.2612
O     14.4066     10.5877     15.4628
C      8.1479     12.3582      9.1298
C      6.0491      5.8829      9.9039
H      3.2147     12.4545      5.8450
H      3.6642      5.3720      8.1977
C     19.5406      2.7608     15.7309
H      8.0991     11.7544     10.0769
H      3.8972     11.9974     10.0750
H      2.5012     21.0733      9.1165
C     17.5197     10.8271     17.1078
C      9.8403      8.3950      5.0702
O      1.9301     21.5920      4.9625
C     11.2559      8.0160      7.3332
C      8.8659      7.8244     11.9244
C      7.5499      7.6414     12.9568
C      6.3221      6.8421     12.0917
H      5.5407     16.4410      1.2730
H     17.0297      9.3372     13.8506
H      1.5997     11.1384      4.8994
H      7.4427      6.2969      8.0195
C      8.1917      2.8808      8.7453
H      1.1889     13.9314      2.0140
C      7.0986      6.2455     10.8222
C     20.5482      5.5127     16.1448
H     20.9307      7.5619     15.0555
C     11.7105      6.6373      5.1514
H     16.4547      9.1110     21.3506
H     16.7427     10.9352     15.1473
H      2.4488     18.6999      0.8769
C      9.6223     11.5644      7.1973
C      6.2408      4.8691      8.9509
C     15.9203      7.4238     18.1163
C      4.7692      5.2264     12.5508
C     17.2701      8.4989     14.8459
H      9.3009      7.3605      5.4571
H     20.7549      7.0174     17.1213
H      3.4689     13.9560     10.5017
H     18.8307     12.6192     16.9561
C     -0.5937     16.2853      8.1403
C     12.9136      9.0162     12.5187
C      1.6366     14.7716      7.8343
H     11.1650      6.6487     10.6090
C     -0.5619     19.2518      1.3453
H      5.6698      7.6595     11.6933
C     10.2222      7.2591     12.5909
O     15.4918     10.2225     13.6166
C      7.1051      8.7100      8.7071
C     16.6506      8.8577     20.3544
C      3.4350     14.4039      9.4269
C      2.5914     13.9515      4.8602
H     -2.7260     23.3846      2.7260
H     -3.8615     23.8949      1.6645
H      6.1344     12.7560      6.8727
H      3.1914     19.3995      9.4395
C      4.2441     16.6564      3.2005
H      9.2518      8.8349      7.4941
C     -2.3985     21.0574      0.8789
C     11.3892      7.1634     11.6552
H     10.5383     11.3592      5.5357
C     18.1164      2.2245     18.0719
H     17.0894     12.8881     17.2793
C      2.5903     12.2546      8.7626
C      4.7770     11.4826      8.0995
C     10.9411      4.7430      3.9076
C     16.8632      9.7871     19.3265
C      2.9699     16.5607      2.6645
C      5.3654      7.0341      9.4663
H      2.1313     11.3035      9.2147
H     15.4364      7.8043     13.2083
H     22.2663      5.5586     17.3338
H      0.5382     16.3710     -0.3624
O     18.4074      6.8160     19.5371
C      0.6121     21.0547      4.5387
H      4.1864     11.2779      7.1681
C      9.8175      8.2201      3.7023
C     10.6173      7.0312      2.9142
H      7.7093      9.1920      9.4558
H     21.8713      3.7009     15.8493
C     10.1384      8.7542      8.0100
H      3.6966      4.3500     13.8926
H     -0.8399     16.0196      9.1113
C      3.4091     14.2427      2.0707
C     -0.3439     21.2750      2.1524
O      3.7951      4.1356     12.9456
O      7.8249      3.9125     10.5080
C     -0.0692     15.6432      1.5325
C      0.3622     16.6066      4.0069
C      7.1855     10.7928      7.4526
H     16.2929     10.7323     19.2452
H     -1.1761     22.5426      4.3766
H     12.6502      8.6856     10.6586
O     -0.1682     22.9458      5.9776
C      6.1341     11.2646      8.3365
C     13.4407      7.1801      6.8348
C     14.4824      7.7409     13.8883
C      0.4562     20.5645      3.1295
H      8.9613     13.2211      9.1607
C      2.7472     12.7936      3.9868
C      0.2651     15.1963      7.4972
C     10.0492     10.7949      6.0876
C      9.9451      3.3656      5.5212
C     17.9763     12.2562     17.6668
C      2.6845     16.7987      9.6125
C      1.1437     15.0776      1.7493
C     -1.5584     20.4446      1.7765
C      4.1254     12.2183      9.0624
N      2.4353     11.4536      4.5258
C      3.9984     14.3893      0.5839
O     16.8091      5.8434     15.1470
C      9.4434      6.0656     13.4080
H     18.4461      9.6970     18.3695
C     10.7249      3.6959      2.9401
C      9.9070      8.1080      9.3621
H      7.7102      2.2646      8.0493
H      2.0314     14.1895      6.6341
H      7.4637      4.8961     10.9177
H      8.2679      9.9869      5.8705
C     -3.1593     22.1012      1.2280
H      5.4033      6.9078      8.3610
H      1.5546     19.8053      9.5723
H     -0.7397     22.3434      2.4913
H     13.0435     10.4977     10.8917
H      3.4339     15.1530     -0.1371
H     -1.6058     16.2679      7.7198
C     14.9094      7.5135     15.4579
H      4.9810     14.5193      0.2806
C     13.2666     10.2661     12.1012
H      3.0145     10.7911      4.0417
C     17.2054      8.2701     17.2349
C     20.4765      7.0016     16.0755
C     20.1493      9.7016     14.3580
C     18.5492      7.9973     14.6828
C     17.1562      6.2425     19.3901
C      2.0091     17.8948      2.5141
C      6.0726      5.8356     13.0956
C     18.4100      7.2226     17.2419
C      8.1177      6.3882     13.6229
H     13.6843     11.3004     12.4404
C      4.2399      4.9864      7.4054
C      1.5184     18.1066      1.0847
H     10.8095      6.8897      7.7104
C     19.0309      6.8537     18.4128
H      1.4512     13.9815      4.6851
H     10.5278      4.0414      1.8101
C      6.9102      5.5208     14.0943
H     -0.4989     16.3701      3.4105
O     20.2261      7.4439     18.4930
H      9.1432      8.6779     11.4355
H     21.0981      9.4513     14.8122
H      0.8787     15.7844      3.7745
H      1.8647     17.6231     -0.6201
H      8.7887      2.7865      9.7158
H     17.8730      5.4758     17.3923
C     12.5761      8.0809     11.4849
H      6.2126      4.9408      6.8859
C     15.7052      6.3614     15.9156
H     13.1240      7.6323      8.9161
C     10.8227      4.2695      5.2275
C     13.3270      6.8477      5.3098
H      5.1473      9.1544      8.9227
H      2.3338     15.0386      4.0578
C      1.3609     18.5885      4.9247
H      2.5578     12.0288      7.6768
H      2.2263     12.4913      2.0234
H     13.6158     10.2277     15.8700
C      7.8156      7.5245      8.1841
C      4.4311     13.6645      8.5704
C     19.1314      7.1416     15.9777
C      9.3164      9.8057      5.3527
C     -0.0124     19.0286      2.8924
C     11.4034      6.1515      3.7227
H      2.0432     16.3399      0.4017
H      5.1179      5.1668     11.3431
H      9.7216      3.0443      6.3975
C      2.0830     13.8687      8.9435
H     10.8473     10.3226      6.5785
C      0.8600     17.8867      3.5752
C      5.4690     16.4927      2.2981
H     -0.1172     17.0276      7.2968
H      6.4273      8.7183      6.9757
C      7.2957      4.0241      9.3597
H     10.5302     11.6896      7.9051
H      6.9108     11.1754      6.3763
C      2.3474     19.9851      8.8781
C     11.0317      5.5866      6.0699
C      2.9084     13.1433      2.6528
C      0.9007     17.5592      6.0456
C      1.8159     19.5825      7.3278
C      1.4058     17.0304      0.0941
H     -1.0696     18.4525      0.7277
H      4.0648     14.9854      2.5208
H     10.4237      8.1386     10.2500
H      3.4555     13.5170      0.4160
H      8.5130      7.7302      7.3326
H      8.9982      3.6691      8.4237
H     20.1320      1.1076     17.0271
C     -0.6619     22.0676      5.1172
C      8.7613      7.3257      9.4554
H      4.3147      6.3357     12.4857
H      8.9293      8.8692      3.1294
C      8.4087     11.4706      7.7770
H     11.1358      2.7080      3.2414
H      9.2198     10.2971      4.3225
C     12.6643      7.6820      7.7536
C      0.4011     16.4527      5.4286
O     21.6328      5.0279     16.7764
C     -1.6484     20.9950      5.6749
C      6.0186     13.8181      6.9813
C     18.0548      1.8182     19.3082
C      2.9057     13.5353      6.2226
H      7.0102     14.1061      6.4762
H      4.6086     16.1482      8.6901
H      1.0014     22.5507      5.6968
H     18.3415     11.7949     18.4464
C      1.7303     17.9498      7.1803
H     -0.1997     16.8245      1.9389
C     16.7627      5.5573     18.0996
C      3.4227     15.7100      8.8173
H     20.3160     10.3729     13.6564
H      0.5582     19.0810     -0.6313
C      8.1720      7.1223     10.7088
H      1.9633     16.5271     10.5906
H     11.9291      6.0640     11.5621
C      4.3129     16.0980      4.5744
C     17.5371      9.5618     17.9495
C      6.6395     12.5497      9.1707
C      7.1292      9.2462      7.3177
C      5.5229      4.3412      7.7274
C      6.0149     14.0513      8.5388
H     11.8877      5.5858      6.6084
H     -3.7826     22.4478      0.4261
H      6.0877     12.0774     10.0140
H     10.2771      5.4260     14.0879
C     14.3748     10.0703     14.1614
H      3.3346     17.3576     10.1790
H     10.4733      8.9592      3.6720
266

C      6.9142      8.6884      0.5602
N     -2.3780     10.7494      1.5067
C      3.8143      1.4604      7.2370
C      2.4236      2.3717      2.1318
C      7.6027      5.0425      2.3493
H     -3.2292      6.8240      2.5042
C      7.8095      3.6264      2.9846
C      3.2862      3.9254      5.1175
C      3.3571      7.2698      6.5748
C      6.1610      1.6676      3.8772
C     -7.4551      8.1140      9.7853
C      0.7001      9.0857      0.7850
N      0.0993      2.6290      6.1236
C      0.3712      6.0909      0.4687
O     -1.1181      2.1719      1.6645
C      3.2471      4.0003      6.7789
H     -0.0861      6.0038     -0.5714
C      2.7945      6.1361      4.4325
C      3.6191     10.3250      3.5298
H      1.0645      1.8115      9.8580
H     -2.7131      2.6891      4.2688
H      4.7847      6.3415      2.3501
C      4.1372      9.0255      3.2463
H     -8.4702      6.6004     10.9225
H     -7.3819      8.9434     10.7775
H     -0.9931      5.5382      6.5916
H     -4.1553      2.6310      7.8286
C      2.9045      2.7460      7.5189
H      7.0658      1.1490      4.0862
O      1.0268     10.4043      2.7661
C     -5.0484     13.0074      8.3230
C     -6.6481      5.8812      9.8234
H      2.5262      0.1348      6.7559
H     -9.0046      5.1394      8.4372
C      6.5366      3.0108      3.1895
H     -6.3074      3.6189      7.8049
H     -8.8917     10.3887      8.9936
H      2.9606      6.9876      9.5047
C      4.7531     10.9451      4.5342
C     -2.9942      8.5116      4.9188
O      2.0806      8.6850      4.7912
C     -1.3012      8.4931      7.0106
C     -4.4108      7.8551     11.7397
C      7.5573      7.4453     -0.1961
C     -6.4069      6.5997     11.9734
H      5.3008      4.6330      2.2962
H      4.1177      9.2308      0.9638
H      1.7618     -0.9994      5.7487
H     -3.2922      5.9552      7.6016
H      2.7338     10.4999     -0.0321
C     -4.9064      2.9589      8.8682
H      0.9288      1.1643      2.1305
C     -5.6785      6.1849     10.8289
C      8.0256      5.9850      3.1246
H      8.5591      7.6344      1.9155
C     -1.0612      7.0316      4.9360
H      2.9098      8.6591      8.2424
H      3.3235     -0.5997      2.2191
H      0.7982      7.4470      0.3692
C     -3.3473     11.7618      7.2745
C     -6.8831      4.6705      9.1100
C      3.0584      7.6750      4.9568
C     -8.1620      5.0010     12.7945
C      4.6869      8.8867      2.0074
H     -3.6417      7.7019      5.3000
H      8.2560      7.7598      4.1719
H      3.1465      0.9401     10.4581
H      4.4444     12.4620      3.2903
C     -0.5131      3.9708      8.1777
H      8.4179      9.4971      1.8516
C      0.1265      9.1594     -1.0032
C      1.5471      2.0049      7.9791
H     -2.3402      7.6503     -2.7494
C     -0.5563      6.4208      1.4691
H     -6.9122      7.5471     11.6629
H      6.5107      9.2017     -0.4203
C     -2.9381      7.5645     -0.5071
O      2.2828     11.1136      0.5792
C     -6.6595      8.3559      8.5899
C      3.9679      8.3819      7.3935
C      3.3903      1.6963      9.5016
C      2.8199      1.4101      4.9937
H     -1.4467     10.9529      1.9812
H     -7.2119     11.8181      7.0526
H      1.8347      4.6959     10.3375
C      4.1570      3.3962      3.2173
H     -3.5324      8.4407      7.0491
C     -2.0401      8.3973      0.5397
C     -1.7627      7.2164     -1.6512
H     -1.7507     10.8944      6.0814
C      5.2965      2.0405      5.0704
H      4.2171      0.0656      6.0292
C    -10.9463     12.7000      9.1706
C     -8.6784     11.4125      8.7583
C     -2.1783      5.2061      3.5739
C      4.0310      9.5705      6.4916
C      2.7881      3.5691      2.6388
C     -7.8181      6.5270      9.9761
H      2.6007      8.3442      0.4413
H      1.1817      3.4305     -0.7762
O      5.6285      6.2785      6.4017
C      0.7004      8.1649      4.3203
C     -2.7849      8.9333      3.4363
C     -2.3886      7.6014      2.8363
H     -6.6338      7.4463      8.0351
H      8.2575      3.6710      4.1050
C     -2.6873      8.5304      7.7692
H      2.2731      3.6992      4.5327
H      0.7655      9.6463     -3.0153
H     -7.7149      3.2789     13.3717
H      0.1008      4.6892      7.7564
C      3.2795      1.0334      2.0268
C     -0.3119      8.5472      1.9577
O     -8.4400      3.7925     13.7356
O     -5.5024      3.9361     10.9017
C     -0.0538      2.7069      1.4733
C      0.0144      4.0373      3.8734
C     -5.9107     10.7227      7.8192
H     -3.0543      9.5393      8.0332
H      2.9434      9.6824      6.2259
H     -0.9685     10.1039      4.4744
H     -0.0459      8.3403     -2.3881
O      0.4598      9.6310      6.2558
C     -7.0844     11.7172      8.2976
C      0.7859      7.2551      6.7558
C      1.6815      7.9591      0.8442
C      0.6230      7.7863      2.9161
H     -3.9439     13.7331      8.2193
C      2.5678      0.2232      4.1569
C     -0.1656      2.6997      7.6287
C     -2.8628     10.7624      6.3899
C     -2.4151      3.4760      5.0747
C      5.1877     12.1507      4.2264
C      2.9015      4.2947      9.9820
C      1.1766      1.8794      1.4313
C     -1.3553      7.6073      1.6551
C     -9.5669     12.4380      8.7673
N      2.1198     -0.8970      4.7218
C      3.5093      0.5120      0.5936
O      3.9316      6.0179      2.2425
C     -3.3999      6.1299     13.0909
H      6.0369      9.9410      6.0446
H     -0.5699      2.0191      8.3729
C     -2.3657      4.5353      2.2212
C     -2.9942      8.1825      9.2303
H     -4.7935      1.9793      9.3782
H      1.6230      1.2990      6.9494
H     -5.8216      3.5243     11.9560
H     -4.5478      9.6491      9.0130
C     -2.5067      9.7318      0.5311
H     -8.7509      6.4973      9.2716
H      1.1372      7.2111      8.6459
H     -0.9007      9.2764      2.3105
H      1.4720     10.4581     -1.2503
H      4.2182     -0.2086      1.2159
H     -1.0004      3.5248      9.0852
C      1.8833      7.5360      2.2337
H      2.8964     -0.4871     -0.0705
C      0.6395      9.9961     -1.7924
H      2.8026     10.3632      4.2535
C      4.3731      8.0943      4.5388
C      8.0728      7.3978      3.0240
C      7.6657      9.7406      1.1552
C      5.9388      8.2926      1.7088
C      4.1903      6.1333      6.3253
C      2.0094      4.9627      2.3979
C     -6.8282      5.3548     13.0696
C      5.5358      7.2143      4.3045
C     -4.6232      6.1126     13.3470
C     -8.5980      4.8567      7.4335
C      1.4937      5.1540      0.8546
H     -2.7706      6.4838      5.9918
C      6.4806      7.2351      5.4970
H     -0.6524      2.3631      5.5520
H     -2.6014      5.3778      1.5740
H      1.1224      1.2467      0.4848
C     -5.5212      5.2173     13.8678
O      7.3774      7.6098      6.1391
H     -4.4425      8.8147     11.4705
H      8.1932     10.3920      0.4695
H      0.3232      3.0618      3.4276
H     -2.5550     11.4355      0.9484
H      2.5675      4.8836     -1.1513
H      4.9487      5.9392      4.2165
C     -0.4486      7.9071     -1.5085
H      6.8402      5.3036      4.5709
C      2.5959      6.2058      2.7545
H      1.6565      5.6546      9.2836
C     -2.3912      4.8701      4.9765
C      0.4219      6.8686      5.2286
H      5.0169      8.0230      7.4637
H      1.9482      2.0770      5.3414
C      1.3008      5.7639      4.7090
H    -11.6517     11.9299      9.4134
H      1.8178     -0.4014      2.3336
H      3.5778     10.9450      2.5067
H     -0.8329      7.3496      8.8301
C     -4.4530      6.4133      7.9915
C      4.0694      0.7963      8.4589
C      6.5607      7.4359      3.0102
C     -3.4794      9.7118      5.8021
C     -0.0677      6.5468      2.8414
C     -1.2549      6.5695      3.5432
H      2.7929      3.8259      0.4981
H     -7.9548      4.7185     11.5259
H     -2.7969      3.0538      5.9592
C      1.8630      1.4717      9.1703
H     -0.7915      8.9190      7.8419
C      0.6345      5.3347      3.4391
C      5.4387      3.8357      2.9993
H      1.8114      4.3477      8.1121
H     -5.0712      8.8278      7.5907
C     -5.7256      3.8241      9.5454
H     -2.4432     12.1197      7.6695
H     -6.0350     10.5380      6.6588
C      1.9996      6.6242      8.8505
C     -1.8210      5.8807      5.9687
C      2.7176     -0.0416      2.7702
C      1.2162      4.6979      5.6330
C      2.1954      6.5522      7.2130
C      1.8610      4.3005     -0.3446
H      4.0872      1.5471      2.4200
H     -2.7899      9.0931     10.1620
H      4.1086      1.1244     -0.0964
H     -5.4048      5.7968      8.1028
H      5.1560      1.3121      3.2111
C     -0.1944      9.2659      4.9378
C     -4.0213      7.1958      9.1575
H     -9.0001      5.6906     12.8494
H     -3.7669      8.8919      2.7781
C     -4.5555     11.8813      7.9995
H     -3.0537      3.6522      2.4924
H     -4.6297      9.6216      6.0613
C     -0.4020      7.4263      7.5556
C      0.2587      3.8698      5.2956
O      7.6146      5.8144      4.5491
C     -1.4179      8.2947      5.4556
C      6.1634      1.7329      7.3825
C      5.1270      1.8068      6.5613
C      3.2448      0.6485      6.1939
H     -4.2453      6.9402      7.2102
H      7.1838      2.1433      7.2179
H      4.5196      3.1698      8.6138
H     -6.5127     12.6903     10.2970
H      0.5194      8.6397      6.4015
H      5.8519     12.7768      4.6089
C      2.0766      4.8881      7.1647
H      0.1019      3.7279      1.2059
C      3.8647      5.4827      4.7859
C      3.4071      3.3120      9.0563
H      7.1556     10.4117      1.7326
C     -4.6458      7.0306     10.4685
H      3.4568      4.3245     11.0278
H     -1.8173      5.9943     -1.1633
C      4.0096      2.6492      4.5530
C      4.9679      9.9763      5.5633
C     -6.4442     12.7232      9.1463
C     -5.5709      9.4206      8.4018
C     -7.3092      4.1901      7.9540
C      5.7089      0.7627      8.2683
H     -1.3668      4.1980      7.6438
H     -3.3302     10.2576     -0.0968
H     -2.7121      5.3744     13.0970
C      1.2051     10.2627      1.4775
H      3.5645      5.1637      9.5325
H     -2.0596      9.8335      3.4580
