260

C     19.6986      8.4195     13.7346
N     -3.0781     10.0948      1.7617
C      4.2579      1.4052      7.0491
C      2.1224      2.5951      2.2217
C      7.7497      5.0471      2.2755
H     -3.2971      7.0640      2.8676
C      7.9472      3.7190      2.6067
C      3.5777      4.1113      5.5470
C     16.2324      7.1294     19.6610
C      6.4786      1.9682      4.0146
C     -7.3468      8.3525      8.9063
C     13.6099      8.8215     13.8769
N      0.6815      2.5368      6.1462
C      0.4971      6.3343      0.6932
O     -1.4231      2.2768      1.4237
C      3.3031      4.0139      7.0359
H     13.2630      7.1015     11.8074
C     15.8002      6.2178     17.5017
C     16.5553     10.3022     16.2422
H    -10.6940     14.3905     10.1453
H     17.2676      5.6387     14.8050
C     16.8974      8.9485     16.0798
H     -8.8169      7.0497      9.3017
H     -7.7644      9.1974      9.4406
H     -1.2034      5.4936      7.0851
H     -6.2972     14.8817      8.7388
C      3.3745      2.5675      7.6097
H      7.3879      1.4555      4.2291
O     13.9682     10.8419     15.3181
C     -4.5485     12.5934      8.7213
C      6.1160      5.9924      9.6899
H      3.3175     -0.3876      6.1356
H      4.0213      5.0943      8.8197
C      6.5420      3.1767      3.1763
H     -8.5230     11.9914     10.1994
H      2.4935      5.8579      9.4084
C     16.9941     10.9497     17.4100
C     -2.9678      8.5254      5.2176
O      2.0630      8.8651      4.8346
C     -1.3908      7.9309      7.0299
C      8.8293      7.7966     11.8344
C     20.5144      7.5393     12.9037
C      6.6064      6.7016     -0.8826
H      5.8046      4.2752      1.5392
H     17.6255      9.6800     14.0526
H      1.6426     -0.9826      6.0024
C      7.6998      2.9605      9.0311
H      0.5704      1.0603      1.1991
C      7.1452      6.3624     10.7636
C      7.8396      5.7663      3.3259
H      7.6724      7.1308      1.9892
C     -0.9800      6.7360      5.0709
H     15.9556      8.5458     21.2966
H     16.0718     10.7737     15.1037
H      2.4332      5.8735      0.3367
C     -2.9779     11.7753      7.0511
C      6.2794      4.7825      9.1438
C     16.0114      7.5914     18.2136
C      4.6038      5.3660      0.0691
C     17.4880      8.8312     14.7275
H     -3.7372      7.6184      5.6253
H      8.4355      7.7217      4.0221
H     -8.9637     14.7157     10.6371
H     18.7481     11.9141     16.9931
C     -0.3195      3.3383      8.0894
H     19.6697     10.1284     14.9619
C     12.4908      8.9126     12.7160
C      2.0727      1.8491      7.9224
H     10.9045      6.0218     10.9161
C     -0.6695      6.2959      1.6122
H      5.3200      7.1553     -0.7496
C     10.1509      7.3157     12.4996
O     15.3093     10.2329     13.2169
C     -5.9169      8.2875      8.8635
C     16.5886      8.3736     20.3617
C     -8.9847     14.4224      9.7311
C      2.6679      0.9837      4.9170
H     -2.1788     10.3011      2.5070
H    -11.1798     16.7804      9.9046
C      4.1454      3.8582      3.3544
H     -3.4603      8.3709      7.0286
C     -2.0696      8.3335      0.4829
C     11.4556      6.8328     11.7898
H     -2.3474     11.8552      5.0815
C      5.3638      2.2895      4.8575
H     17.8088     13.0212     16.9861
C    -10.2676     12.5148      8.5527
C     -7.9441     10.7780      8.4071
C     -2.0752      5.0871      3.8656
C     16.2654      9.6202     19.3765
C      2.6032      3.7102      2.5629
C     -7.6810      6.9870      9.2563
H    -11.2183     12.1691      8.9855
H     15.1642      7.8983     12.9317
H      9.0997      5.9553      5.1738
H      0.3079      3.6400     -0.5013
O      5.6454      6.7232      6.6170
C      0.8999      8.1511      4.4673
H     -7.9058     10.1210      7.4331
C     -2.8260      8.6479      3.6964
C     -2.2450      7.3579      2.8907
H     -5.1049      8.8701      9.2773
H      9.2034      3.9189      2.7243
C     -2.5029      8.6728      7.7952
H      2.8069      3.8379      5.0017
H     12.6182     10.1827     10.9504
H      4.6150      3.7277      0.3457
H     -0.2345      3.5486      9.0789
C      3.1104      1.3573      2.2745
C     -0.2828      8.4837      2.0613
O      3.8604      4.2742      0.3578
O      7.6582      4.2336     11.1761
C     -0.3349      2.8068      1.6480
C      0.2128      3.5416      3.6988
C     -5.6181     10.9200      7.2987
H     -2.5674      9.8277      7.9486
H     15.7761     10.6053     19.6550
H     -0.6757      9.7393      4.3672
O      0.0256      9.7257      6.1215
C     -6.8139     11.5729      8.0466
C      0.7217      6.7511      6.7275
C     14.4983      7.5005     13.6890
H     15.6332      7.8258     15.6364
C      0.6854      7.6823      3.1033
H     -4.4362     13.6456      8.4641
C      2.4262     -0.1251      4.1299
C      0.8005      2.4445      7.3661
C     -2.2346     10.8722      5.9876
C     -2.5399      3.2519      5.9800
C     17.8556     12.1516     17.5956
C    -10.2768     16.5271     10.1989
C      0.8451      2.2850      1.4243
C     -1.3946      7.6069      1.6906
C     -8.9290     12.1472      8.8859
N      1.9156     -1.1859      5.0347
C      3.6658      1.3470      0.7042
O     16.9647      6.4645     15.2172
C      9.6121      6.0153      0.5272
H     18.2076      9.5483     18.0926
C     -2.4844      4.2467      2.9731
C     -2.9172      8.1040      9.2636
H      7.4899      3.1885      8.0143
H      8.1814      3.3953     11.4961
H     -4.8840      8.9025      6.7930
C     -3.0001      9.3269      0.7302
H      2.1018      7.6384      9.4378
H     -0.5660      9.2786      2.7795
H     14.0359      9.5416     11.7249
H      3.3672      2.3387      0.5263
H     -1.0557      2.5636      8.1808
C     14.7984      7.3554     15.2353
H      4.7958      1.0447      0.6710
C     13.1313     10.1810     11.9316
H      1.1522     -1.6924      4.7749
C      4.1791      8.1843      4.3410
C      7.7511      7.1189      3.2800
C     20.2273      9.5285     14.2827
C     18.7243      8.0726     14.8153
C      4.2565      5.9308      6.5487
C      1.9987      4.9711      2.2735
C      6.1777      5.6609      0.1452
C      5.4676      7.4230      4.2963
C      8.3107      6.4782      0.7045
H     13.2332     10.9776     12.4897
C      4.3993      5.0127      7.6302
C      1.5963      5.1907      0.8692
H     -2.8075      5.9778      6.8384
C      6.3922      6.9047      5.3687
H      1.9552      1.6131      4.9135
H     -2.4153      4.0816      1.8546
H      1.4117      3.0680      0.7613
C      7.1013      5.7493      1.2139
H     -0.9297      3.8674      3.6608
O      7.3970      7.3061      5.6246
H      9.1367      8.7602     11.6173
H     20.7890      9.0718     15.3673
H      0.8351      2.7405      3.5525
H      2.0476      4.6320     -0.9587
H      8.6471      2.3617      9.5483
H      4.7267      5.8185      4.5026
C     12.4589      7.7655     11.4947
C     15.5765      6.2977     15.9177
H      0.7690      6.6460      8.8954
C     -2.0530      4.5001      5.2374
C      0.4667      6.8507      5.3322
H      3.2910      2.0243      4.5091
C      1.5034      5.6882      4.6854
H     -9.9537     12.2917      7.4445
H      2.2121     -0.4754      1.5506
H     14.9553     10.6958     16.0472
C     -4.9173      7.1586      8.3329
C     -8.2376     13.5437      8.6261
C      6.3720      7.6168      3.0834
C     -3.1501      9.9584      5.2555
C     -0.1034      6.1921      3.0226
C     -1.3747      6.3982      3.7491
H      2.3867      3.2538     -0.4516
H      4.6614      5.7063     -0.9556
H     -1.6744      3.2095      6.7666
C    -10.4442     13.8647      9.0882
H     -1.1817     10.8690      6.2246
C      0.8677      5.1277      3.3798
C      5.4038      3.6853      2.3236
H     -0.2419      4.2252      7.3994
H     -6.5971      9.0870      6.5246
C      7.2411      3.9545      9.8297
H     -2.1881     12.2310      7.9173
H     -5.7623     11.1030      6.1745
C      1.8766      6.7245      8.6518
C     -1.8046      5.5035      6.1970
C      2.5481      0.0786      2.7226
C      1.3420      4.5988      5.8041
C      1.9753      6.3030      7.2924
C      1.3950      4.1562     -0.1849
H     -1.3548      5.3942      1.2803
H      4.0972      1.6328      3.1186
H     -2.1882      8.7956      9.7354
H      3.1164      0.3866      0.3859
H     -4.5740      6.8543      7.3776
H      5.9573      0.9979      3.1570
C     -0.3056      9.0310      5.2051
C     -3.9028      7.1743      9.3730
H      4.3560      6.4085      0.7006
H     -3.8061      8.7492      3.0015
C     -4.2713     11.6137      7.6295
H     -2.4839      3.2830      3.4126
H     -3.8492     10.5149      4.5402
C     -0.1548      7.4960      7.5123
C      0.6862      3.5351      5.2508
O      8.5170      5.3177      4.4708
C     -1.5684      8.1082      5.7097
C     -6.6775     14.1130      6.9720
C      5.4008      1.9241      6.2930
C      3.3735      0.6318      6.0483
H     -5.6372     13.5476      6.9537
H     -7.8028     16.2134      9.1560
H     -6.4086     12.3011     10.1697
H      0.9961      9.6971      6.8521
H     17.7829     12.1502     18.7045
C      2.0358      4.8298      7.0975
H     -0.0415      3.9497      1.7466
C      4.0598      5.4074      5.2841
C     -9.0232     15.8093      9.1569
H     21.0039     10.4653     14.0319
H      0.3925      6.3754     -0.4215
C      8.3515      7.1233     10.6537
H    -10.5737     15.6489     10.8522
H     11.8213      6.1386     12.5514
C      4.3462      3.0941      4.4531
C     17.2221      9.9381     18.4621
C     -6.0324     12.5821      8.9702
C     -5.8746      9.4574      7.1796
C      5.8322      4.6295      7.6637
C     -6.7989     13.8777      8.4581
H     -1.0425      4.1157      5.4754
H     -3.5972      9.5672     -0.2195
H     10.1947      5.1175      0.7453
C     14.4299     10.0826     14.0806
H     -9.6673     17.3121     10.6917
H     -2.0441      9.6060      3.5819
