262

C     20.0660      8.3888     13.5556
N     -2.8521     10.3688      1.9571
C      3.8500      1.6145      6.7149
C      2.3736      2.4903      2.0730
C      7.7726      4.3943      1.7889
H     -2.9838      6.7483      2.3152
C      7.3796      3.1179      2.4697
C      3.4391      4.0690      5.3736
C     16.2773      7.2484     19.4100
C      6.2720      1.7078      4.1555
C     -6.6729      8.3846      8.7015
C     13.7054      8.9811     13.7928
N      0.2027      3.0130      6.3224
C      0.8287      6.4350      0.8320
O     -1.4476      2.9687      1.7997
C      3.3048      3.9900      7.0092
H     13.2019      7.8465     10.2202
C     15.7474      6.3088     17.3387
C     16.7764     10.3020     15.9357
H     -1.8682      2.4923      6.4154
H     17.2825      5.7733     14.5750
C     17.1406      9.0377     15.7293
H     -7.9490      7.1755     10.1642
H      7.2543      2.0989      8.9777
H    -10.6795     17.2073      9.7713
H     -0.5543      5.4437      7.0889
H     -7.1394     14.2833      9.2468
C      3.2531      2.7950      7.7092
H      7.4915      1.5487      4.1900
O     14.3067     10.7752     15.4769
C     -5.4398     12.0306      9.2959
C      6.6050      6.2727      9.4164
H      2.4730     -0.0438      6.7456
H      3.7108      5.5110      8.2268
C      6.2438      2.5003      2.9345
H     -9.2157     12.1143     10.0056
H      2.0571      7.7037      9.3369
C     17.1947     10.6446     17.1340
C     -2.8550      8.6601      5.1537
O      1.8770      8.7345      4.8773
C     -1.2075      8.3487      7.0169
C      8.8892      7.8076     11.7771
C     20.6672      7.3398     12.7398
C      6.6897      6.6793     -1.0431
H      5.5288      4.0024      1.7620
H     17.9197      9.5860     13.8844
H      3.1933     -1.6082      5.4889
H     -5.3977      6.2634      8.1375
C      7.7889      3.1503      8.6971
H      0.5225      1.1042      2.4812
C      7.4872      6.4436     10.5195
C      8.1798      5.3802      2.8516
H      8.5044      7.4101      1.9798
C     -1.1819      6.8489      5.2678
H     16.8672      8.6963     21.0953
H     16.4900     11.0116     14.9551
H      2.3769      5.7636      0.7547
C     -3.5214     11.0612      8.0100
C      6.0830      5.0079      9.2629
C     16.1198      7.5644     17.9387
C      4.6245      5.5406     -0.2744
C     17.9255      8.8260     14.6646
H     -3.6525      7.6302      5.5116
H      8.2097      7.1082      3.4631
H     -9.5919     14.0465     10.6865
H     -8.1152     10.0161      8.7624
H     18.8818     11.9881     16.9600
C     -0.1217      3.3103      8.6623
H     19.2393     10.3894     14.4406
C     13.2664      9.0511     12.2269
C      1.8022      2.1658      7.8731
H     10.6606      6.9736     10.4178
C     -0.6374      6.4121      1.5784
H      5.7656      7.0401     -1.2773
H     -2.9390      2.6935      5.3296
C     10.2451      7.2609     12.5581
O     15.6292     10.6982     13.5044
C     -5.9195      8.3207      7.7360
C     17.1792      8.3558     19.9518
C     -9.5986     14.3776      9.6794
C      2.3175      0.8336      4.5710
H     -1.9021     10.5530      2.3148
H     -3.1005     11.2675      1.3162
H     -7.1126     12.9230      6.7568
H      3.2542      6.9278      8.1502
C      4.0370      3.2728      3.3238
C     -2.4164      8.3353      0.7249
C     11.2880      6.8970     11.4002
C      5.2209      2.1424      5.0570
H     17.5443     12.5443     16.2805
C    -11.2984     12.5496      8.6097
C     -8.8085     11.0368      7.4788
C     -2.1818      5.1065      4.1690
C     16.7534      9.8165     19.4769
C      2.6927      3.7593      2.7071
C     -7.2541      7.2696      9.1662
H    -11.7719     11.9473      9.2429
H     15.4453      7.4074     13.5313
H      8.2713      5.3036      4.5638
H      0.5744      3.8861      0.5048
O      5.8734      6.4549      6.2020
C      0.6007      8.3272      4.5749
C     -2.7763      8.7209      3.7041
C     -2.2798      7.3433      2.9401
H     -5.0749      9.9989      9.0323
H      8.3547      2.8673      3.0747
C     -2.3791      8.6280      7.6425
H      2.1794      4.0913      5.0460
H      3.7659      3.9606      0.9554
H      0.3032      4.0958      9.3980
C      3.4220      1.3617      1.9082
C     -0.3506      8.8095      1.9787
O      4.3141      4.2594      0.2697
O      7.4574      3.7295     10.8328
C     -0.2654      3.2377      1.6366
C      0.1436      3.9663      3.9066
C     -6.1196     10.8222      7.4344
H     15.9267      9.6456     18.8334
H     -1.4253      9.6865      4.0241
O      0.2372     10.3955      5.2997
C     -7.4156     10.9735      8.3990
C      0.8083      7.1907      6.7827
C     14.4387      7.6919     13.9865
H     15.8449      8.3989     15.0862
C      0.3780      7.7763      3.1790
H     -4.9832     12.9790      9.6064
C      2.3258     -0.3763      3.7918
C      0.4860      2.7046      7.5222
C     -3.0305     11.0077      6.7590
C     -2.4639      3.2830      5.9939
C     17.8047     11.9860     17.2687
C     -9.4630     16.8716     10.0662
C      0.8861      2.2482      1.9912
C     -1.4119      7.8373      1.7944
C     -9.7425     12.2180      8.8338
N      2.4441     -1.4123      4.8437
C      3.6086      1.4584      0.3630
O     16.9841      6.0597     15.3373
C      9.6618      6.0187      0.2805
H     -6.6471      9.2428      6.0330
C     -2.9737      4.4446      3.2535
C     -2.5157      8.6066      9.0705
H      7.2088      3.7941      8.0673
H      1.9115      1.4410      6.5187
H     -4.9079      9.4083      6.2856
C     -3.0035      9.4497      0.9677
H     -8.1577      7.0042      8.4603
H      2.1692      6.1442      9.6050
H     -0.4883      9.8415      2.4540
H     14.2452     10.1785     10.4189
H      4.6848      1.2704     -0.1418
H     -0.6115      2.8700      9.4602
C     14.9143      7.6189     15.3065
H      2.4820      1.1970     -0.0218
C     14.0804      9.9317     11.5098
H      8.0718      5.4399     10.9893
H      1.8964     -2.3660      4.8749
C      4.4908      8.2552      4.2737
C      7.7794      6.7396      2.6065
C     20.3769      9.6058     14.3404
C     18.7337      7.7419     14.2971
C      4.3239      6.1596      6.2967
C      1.8474      4.9472      2.4863
C      6.0952      5.5730     -0.2762
C      5.7434      7.1181      3.9552
C      8.3109      6.0717      0.3792
H     14.9593     10.5411     11.9707
C      4.2135      5.1180      7.4043
C      1.6325      5.1779      0.9972
H     -3.2557      9.0655      6.9394
C      6.5970      6.7511      5.1641
H      1.1998      1.0200      4.7628
H     -2.6351      4.5431      2.1954
C      7.1569      5.1479      0.6243
H     -1.0212      3.8009      3.9432
O      7.7687      6.9213      5.2259
H      8.5477      8.7458     11.8933
H     20.7835      9.0150     15.3162
H      0.1964      3.0254      3.3670
H      1.7532      4.3780     -0.8312
H      5.0185      5.5941      4.4024
C     12.6450      8.0930     11.2445
H      6.3883      5.0793      7.0671
C     15.6281      6.4311     15.7951
C     -1.8852      4.5066      5.5818
C      0.4163      7.0704      5.3264
H     -6.9703      9.3288      8.6820
C      1.2155      5.8828      4.8082
H    -11.7756     12.6383      7.5890
H      2.5802     -0.5677      1.6792
H     13.4339     10.2708     15.6491
H     -1.5740      7.9469      9.1762
C     -4.8384      7.4688      7.9385
C     -8.9742     13.4572      8.4405
C      6.3021      7.1707      2.6215
C     -3.3417     10.4425      5.3063
C     -0.3103      6.4075      2.9724
C     -1.4889      6.3653      3.8898
H     -3.1515     11.8151      8.7279
H      1.9426      3.0481      0.2021
H      4.0141      5.8186     -1.1997
H     -3.3207      3.5964      6.7494
C    -11.0542     14.1320      9.0635
H     -1.8295     11.4830      6.4353
C      0.6563      5.2556      3.4730
C      5.1198      3.0383      2.4451
H      1.2406      4.8578      8.1744
H     18.2486      8.1131     19.5994
C      6.9866      3.9941      9.8290
C      2.4035      6.8030      8.8440
C     -1.2622      5.4993      6.1110
C      2.2631      0.0725      2.4157
C      1.1708      4.9782      6.0175
C      2.0772      6.6551      7.1742
C      1.5901      4.0050      0.2260
H     -1.4905      5.7063      1.2858
H      4.5003      0.8563      2.3336
H     -2.4697      9.8006      9.2327
H      4.0765      2.1782      0.8988
H     -4.5260      7.5728      6.9292
H      8.7810      3.2528      9.1718
H     -2.9408     11.1777      4.4671
H      6.5681      0.6607      4.2179
C     -0.5749      9.3147      4.7871
C     -3.9039      7.8274      9.1460
H      4.2917      6.5746      0.2388
H     -4.0005      8.7174      3.3698
C     -4.8497     10.8680      8.4275
H     -3.3184      3.5169      3.6828
H     -4.4787     10.6718      5.3570
C      0.0153      7.9429      7.5713
C      0.5404      3.9625      5.4599
O      7.7123      4.9621      3.9321
C     -1.4666      8.3901      5.6432
C     -6.6557     13.8009      7.2518
C      5.2339      1.8062      6.4659
C      2.6808      0.7640      6.1150
H     -5.6720     14.3014      7.5857
H     -8.1882     15.6265      8.7819
H      0.5403     10.8226      6.2390
H     17.5196     12.7122     18.0191
H      0.3038      7.7061      8.7467
C      1.9554      4.9614      7.2544
H     -0.4438      4.3362      1.8090
C      3.9669      5.5043      5.0022
C     -9.0947     15.6662      9.1161
H     21.1043     10.4047     13.9832
C      8.5424      7.4617     10.3367
H     -9.3573     16.6075     11.1547
H     11.7057      5.9841     11.5378
C      3.9715      2.7798      4.6149
C     17.8521      9.7525     18.1589
C     -6.8305     12.0142      9.4255
C     -5.7710      9.5448      6.8797
C      5.5524      4.7145      7.8700
C     -7.4701     13.5101      8.5031
H     -4.2624      9.4938      0.7069
H     -7.2644     12.1503     10.5358
H     10.2769      5.3178      0.8642
C     14.7882     10.3509     14.1386
H     -8.5258     17.6231     10.1791
H     -2.3804      9.5114      3.2101
