269

C     19.6802      8.7333     13.4245
N     -2.5148     10.4948      1.9852
C      3.6939      1.6138      7.0098
C      2.1383      2.5016      2.0548
C      7.5893      4.7179      1.8326
H     -3.4609      6.4455      2.9598
C      7.5300      3.4821      2.3950
C      3.4284      4.0542      5.4056
C     16.3782      7.6336     19.3366
C      6.3784      1.7452      3.8442
C     -6.8405      8.3737      8.8810
C     13.3151      8.5747     13.8898
N      0.1839      2.6695      6.2536
C      0.7028      6.2076      0.7825
O     -1.5138      2.8801      0.9038
C      3.3001      4.1720      6.9759
H     13.4662      6.9054     11.5818
C     15.6835      6.3037     17.3062
C     16.6730     10.6402     16.2521
H     -2.6002      3.1609      7.1091
H     17.3130      5.9520     14.5780
C     17.0071      9.3452     15.7574
H     -7.5043      8.2692     10.5687
H    -10.9404     17.5022      9.8464
H     -1.1091      5.7289      7.5274
H     -7.5085     14.4344      9.4442
C      3.0423      2.7980      7.6090
H      7.3559      1.8728      4.6646
O     13.9293     10.4814     15.2761
C     -5.4514     11.8027      9.3102
C      6.1933      6.0334      9.6751
H      3.6172      0.2910      5.3908
H      4.2096      5.5925      8.6576
C      6.4559      2.8497      2.7029
H      5.2201      2.8988      6.9436
H     -9.4220     11.6672      9.0207
H      1.6109      7.8063      9.1282
C     17.4568     10.9364     17.3633
C     -2.7649      8.5434      5.2337
O      2.1500      8.6633      4.3901
C     -1.1149      8.6730      7.1178
C      8.7933      7.8408     11.6773
C     20.5641      7.6708     12.8294
C      6.3875      6.7966     -0.9809
H      4.8767      3.6446      1.4072
H     17.7306      9.5003     13.9167
H      2.4587     -1.0690      5.5890
H     -5.2644      6.1689      7.7009
C      7.7016      2.9225      8.7370
H      0.5624      1.1697      1.4708
C      7.1611      6.1778     10.6520
C      7.8710      5.6831      2.9431
H      8.7177      7.9073      2.4211
C     -0.9238      6.8626      5.5629
H     16.1825      8.8252     21.1390
H      2.6000      5.4462      0.4717
C     -3.4457     11.0993      7.9664
C      6.2841      4.8996      8.9305
C     16.0495      7.6699     17.6414
C      5.0125      5.0944     -0.8886
C     17.4970      8.8196     14.6096
H     -3.4450      7.6817      5.1624
H      8.0825      6.9404      3.9048
H     -9.3791     13.7527     10.1879
H     -7.6694     10.2771      8.5751
H     19.4162     12.0540     17.7928
C     -0.7631      3.4242      8.5113
H     21.2040      9.5951     13.9276
C     13.3491      8.6163     12.0728
C      1.5198      2.1108      7.9697
H     11.5683      5.7865     12.0085
C     -0.6411      6.0727      1.4756
H     18.7420      8.9307     12.7273
C     10.2912      7.3651     12.6205
O     10.3622      3.0182     10.1995
O     15.4037      9.9887     13.7255
C     -6.0242      8.1976      7.7890
C     16.9832      8.7866     20.2325
C     -9.7178     14.2502      9.3229
C      2.1843      1.2837      4.9634
H     -2.5040     11.5179      1.8251
H     -6.0513     13.3727      6.9697
H      2.7603      6.4662      9.4280
C      4.1599      3.5142      3.1283
C     -2.5401      8.1853      0.9288
C     11.7467      6.9913     12.1792
C      5.1689      2.2817      4.8353
H     17.9711     13.0038     16.7663
C    -11.0246     12.4874      8.3372
C     -8.7371     11.2432      7.2799
C     -2.0628      5.1342      4.4320
C     16.5095      9.8948     19.2927
C      2.7353      3.6691      2.7349
C     -7.6484      7.5087      9.6403
H    -11.3866     11.7533      9.1491
H     15.2099      7.3227     13.4268
H      8.0173      5.4603      4.7372
H      1.7274      2.9850      0.1178
O      5.7468      6.6396      6.3473
C      0.7641      8.1734      4.4160
H     -8.7556     12.0709      6.5591
C     -2.6856      8.6327      3.8614
C     -2.4353      7.2048      3.2562
H     -5.0006      9.8767      8.8296
H      8.6256      3.1697      2.3707
C     -2.4200      8.6607      8.0225
H      2.4218      3.9279      4.9410
H      3.9708      4.3830      0.8408
H     -0.8858      2.4807      9.1577
C      3.0495      1.2720      2.0284
C     -0.3452      8.5348      2.1153
O      4.1236      4.1375     -0.1624
O      7.5481      3.9165     10.9825
C     -0.2652      3.0398      1.4757
C      0.2563      3.9564      4.1303
C     -6.0078     10.7032      7.2813
H     15.5332     10.2564     18.8310
H     -0.5377      9.9443      4.1202
H     12.4424      8.1852     10.2925
O      0.2719     10.1580      5.9130
C     -7.4087     11.0349      8.0428
C      0.9236      7.5121      6.8952
C     14.3915      7.3998     13.9347
H     15.5255      8.2797     15.5456
C      0.4421      7.7367      3.0769
H     -4.9397     12.7180      8.9331
C      2.1855     -0.0152      4.0232
C      0.3555      2.7380      7.5765
C     -2.8488     10.8737      6.7693
C     -2.2404      3.4281      6.1260
C     18.1063     12.1623     17.5643
C     -9.9361     16.9376      9.9534
C      0.8570      2.1298      1.8265
C     -1.6624      7.3858      1.9453
C     -9.6397     12.3005      8.1676
N      1.8841     -1.1613      4.6137
C      3.5854      1.5843      0.7125
O     17.1087      6.1582     15.4666
C      9.4211      6.1246      0.2235
H     18.7331      9.0851     18.7114
C     -2.5874      4.1686      3.6484
C     -3.0511      8.2452      9.2816
H      7.3671      2.8362      7.7825
H      2.4687      0.3056      6.8719
H      8.7430      3.8180     11.2279
H     -5.8283      8.8458      5.8082
C     -2.8418      9.6324      0.9178
H     -8.7931      7.2825      9.3955
H      0.9744      6.1629      8.9398
H     -0.6489      9.5260      2.5260
H     14.0236      9.3474     10.5801
H      4.2339      0.9962      0.4032
H     -1.8707      3.7902      8.2492
C     14.8270      7.4766     15.4419
H      2.9504      2.1039      0.0252
C     14.3802      9.2643     11.6306
H      8.0156      5.4022     11.2163
H      2.2408     -1.6819      3.8319
C      4.3382      8.3790      4.0479
C      7.9183      7.1469      2.8273
C     20.0488     10.1782     13.8397
C     18.7980      8.1873     14.6786
C      4.4302      6.2799      6.3924
C      1.9603      4.8496      2.6281
C      5.8706      5.9547     -0.0007
C      5.7461      7.7555      4.0443
C      8.2464      6.3660      0.5802
H     15.2454      9.3572     12.2651
C      4.3267      5.1433      7.4380
C      1.6790      4.9344      0.9652
H     -3.1879      8.5343      7.2319
C      6.3408      7.2113      5.2274
C      9.8632      3.1447     11.3105
H      1.4102      1.7000      5.3991
H     -2.5868      4.1416      2.5016
C      7.0223      5.4466      0.8208
H     -0.8028      4.0487      3.7249
O      7.7170      7.0654      5.4301
H      8.8146      9.1886     11.7885
H     19.9617     11.0280     12.8390
H      0.4771      2.9717      3.5855
H      0.1566      3.8893     -0.1789
H      4.7549      5.5434      3.9041
C     12.5547      7.6493     11.3064
H      6.2757      4.0097      7.0318
C     15.7632      6.2265     15.7634
C     -2.0795      5.0198      5.7707
C      0.6249      7.1535      5.6594
H     -7.5256      9.1135      8.6232
H      2.7157      2.0124      4.3344
C      1.3821      5.9510      5.0070
H      1.7118     -0.7983      2.1197
H     14.3502     10.3354     16.0897
H     -2.4155      7.8738     10.0095
C     -4.8475      7.1552      7.8434
C     -8.9187     13.5875      8.2574
C      6.4075      7.6388      2.7492
C     -3.0842     10.5892      5.2898
C     -0.0219      6.2986      3.1703
C     -1.2462      6.4525      4.1416
H     -2.7567     11.4985      8.9511
H      2.2730      4.5215     -1.1136
H      5.5024      4.5666     -1.6728
H     -2.6604      2.8236      5.4367
C    -11.1410     13.9461      8.9041
H     -1.8859     10.8644      6.6185
C      0.7586      5.1533      3.6348
C      5.1583      3.3244      2.4229
H      1.8869      4.9393      8.2506
H     18.0673      8.9196     20.6949
C      7.1798      3.8888      9.6433
H     -2.9149     10.4142      2.8623
H     -6.2271     11.1503      6.3433
C      2.0348      6.8062      8.7182
C     -1.2884      5.7660      6.4184
C      2.1506      0.1069      2.6019
C      0.9458      4.8711      6.1216
C      2.2051      6.9721      7.3086
C      1.4073      3.9688     -0.2735
H     -1.1970      5.0946      1.3258
H      3.8861      1.2640      2.8316
H     -3.4916      9.3087      9.4697
H      4.1739      2.4004      0.8493
H     -4.2931      7.3003      6.8799
H      8.5416      2.4243      8.6794
H     -2.3796     11.2859      4.4708
H      6.5746      0.9242      3.1697
C     -0.0407      9.2603      4.9010
C     -4.1598      7.2486      9.1875
H      4.6992      5.6337     -1.7664
H     -3.4722      9.2365      3.5619
C     -4.8894     10.8275      8.4243
H     -3.1591      3.3187      3.8924
H     -3.7712     10.4542      4.6475
C     -0.1477      7.9872      7.7134
C      0.4759      3.6927      5.5481
O      8.1483      4.9594      3.8752
C     -1.5437      8.1459      5.8256
C     -6.8450     14.0021      7.0980
C      5.3055      1.9882      6.3485
C      3.0519      0.8499      6.0697
H     -6.3257     14.8276      7.9115
H     -8.4068     16.0397      8.9485
H     -5.3409     11.5546     10.4261
H      0.7858      9.3880      6.5462
H     18.1461     12.8072     18.5873
H      0.0302      7.8021      8.8802
C      2.0916      5.1338      7.0666
H      0.2842      4.0840      2.0129
C      3.9810      5.7609      4.8755
C     -9.4930     15.7343      9.0047
H     19.1882     10.0557     14.5686
H      0.6616      5.7633     -0.3071
C      8.2034      7.2932     10.4754
H    -10.5864     16.6938     10.9387
H     12.3471      7.0561     13.1018
C      4.3913      3.3837      4.5244
C     17.7240      9.7208     18.0828
C     -6.9399     11.9951      9.1196
C     -5.9879      9.3344      6.6751
C      5.6341      4.5992      7.7483
C     -7.5713     13.6775      8.6078
H     -0.2879      4.1759      9.0743
H     -3.3192     10.1877      0.0008
H     -7.6628     11.7608     10.1251
H      9.6932      5.1098      0.9433
C     14.3814      9.6533     14.2304
H     -9.0173     17.5463      9.8579
H     -1.8027      9.2833      3.9917
