268

C     19.7986      8.2145     13.4931
N     10.1247     10.3320     14.5749
C      3.8203      1.4444      7.2467
C      2.1428      2.5745      2.1243
C      7.4932      4.3853      2.0574
H     -3.2991      6.8416      2.7494
C      7.2274      2.6949      2.1031
C      3.4181      4.0471      5.2636
C     16.1288      7.0932     19.5141
C      6.2856      1.7024      4.3736
C     -6.9713      8.2961      8.7335
C      0.3257      8.9614      0.8752
N      0.4928      2.5945      6.2897
C     13.3507      6.1788     13.6129
O     -1.5588      2.5972      2.1016
C      3.2313      4.0386      6.7174
H      0.6099      7.3741     -0.8454
C     15.7056      6.3417     17.3514
C     16.8572     10.1861     15.5869
H     -1.4921      2.5850      5.7159
H     16.8402      5.0794     15.2710
C     16.7919      8.7668     15.6723
H     -8.5462      7.1789      9.9794
H      7.5503      1.9663      8.9990
H    -10.9475     16.8454      9.7491
H     -1.6854      6.3681      7.1374
H     -6.9456     14.6750      9.2473
C      3.2246      2.6735      7.7473
H      6.7909      2.2912      5.0528
O      1.1128     10.7247      2.5327
C     -5.1038     11.8764      9.4085
C      6.2432      5.9536      9.6394
H      2.4641     -0.3606      6.0957
H      3.9220      5.6888      8.0052
C      6.3619      2.5229      3.1307
H      5.4134      3.3980      7.9313
H     -9.3180     11.9221      9.5865
H      1.2494      7.8734      9.0703
C     17.1628     10.6653     16.7924
C     -2.9292      8.6279      5.1468
O      2.0656      8.8447      4.4614
C     -1.4699      8.2080      6.9511
C      8.9817      7.6919     11.6395
C     20.8410      7.3503     12.7413
C      6.8620      6.6007     -1.0364
H      5.6382      4.1681      1.6278
H     17.2304      8.9996     13.5070
H      2.9488     -1.1699      4.9192
H     -5.2896      6.2126      8.2135
C      7.5647      3.0136      8.8537
H      0.3919      1.2155      1.8582
C      7.4912      6.3928     10.2460
C      7.7449      5.2121      3.1047
H      8.6101      7.0741      1.9803
C     -1.0067      6.8391      5.2447
H     15.8538      8.4703     20.6390
H     16.5632     11.0122     14.8278
H      2.7711      5.7810      0.6316
C     -3.3966     11.1909      7.6506
C      5.9100      4.6325      9.4459
C     16.0125      7.7097     17.8241
C      4.9570      5.7449     -0.2311
C     17.2907      8.2605     14.4241
H     -3.8108      8.1510      5.6241
H      8.2169      7.0940      3.5821
H     -9.2790     13.6962     10.7490
H     -7.6557      9.8912      9.0881
H     -1.5324      1.5671      1.9443
H     18.5207     12.4342     16.4110
C     -0.5289      3.4546      8.2908
H     19.0723     10.1708     14.6679
C      0.1344      9.0914     -0.6489
C      1.8891      2.3228      8.1568
H     -1.8020      8.0324     -2.0821
C     12.1684      6.2974     14.6004
H      5.8695      7.1146     -0.8501
H     19.5898      8.5674     12.4079
C     10.2694      7.1378     12.5493
O      2.1181     10.5137      0.4318
C     -5.9936      7.9285      7.7716
C     16.6575      8.4378     19.9629
C     -9.4025     14.4273      9.8188
C      2.4392      0.8451      4.6363
H     10.5174     11.3339     14.4101
H      9.3395     10.2249     15.3882
H     -7.2585     12.6751      7.3542
H      2.8585      7.4699      9.5333
C      4.0540      3.2139      3.1810
C     10.5244      8.1300     13.6339
C     -1.4203      7.0996     -1.6638
C      4.9008      1.8962      5.1586
H     17.1027     12.6099     16.5159
C    -11.1614     12.7515      8.6238
C     -8.6450     11.3535      7.7742
C     -2.1552      5.1358      4.1292
C     16.5961      9.6053     19.1638
C      2.6727      3.6752      2.6392
C     -7.8202      7.0112      9.2370
H    -11.5679     11.9995      9.3805
H     15.0645      7.9545     13.3102
H      7.8049      4.4051      4.6881
H      0.7568      3.8070     -0.1326
O      5.8645      6.5157      6.3506
C      0.7905      8.2277      4.5699
H     -8.7308     11.5647      6.8467
C     -2.9572      8.5039      3.7675
C     -2.4340      7.3124      3.0544
H     -4.6404      9.9434      8.6815
C     -2.4572      8.7808      7.6068
H      4.6085      3.6655     -0.1666
C      2.9732      1.3462      2.2204
C     -0.3437      8.5897      2.0723
O      4.3503      4.6237      0.2857
O      7.0082      3.6490     11.1396
C     -0.3862      3.2865      1.9015
C     -0.1486     -0.0270      1.7631
C      0.3335      3.9032      4.2143
C     -6.2027     10.6233      7.4259
H     15.7225     10.1389     19.5320
H     -0.5477     10.0439      4.0478
H      0.4944      8.0059     -2.3170
O      0.6193     10.2064      5.8901
C     -7.3550     10.8345      8.3099
C      0.7960      7.3992      6.7009
C     14.2803      7.3879     13.9292
H     15.2586      8.4950     15.2962
C      0.4807      7.8475      3.0884
C      2.1097     -0.0661      3.6052
C      0.7671      3.0039      7.6844
C     -2.5978     10.7743      6.6625
C     -2.4402      3.2072      5.8880
C     17.7841     12.1661     17.0874
C     -9.8214     16.9510      9.9729
C      0.6312      2.5115      1.6721
C     11.4414      7.6627     14.6295
C     -9.4463     12.2712      8.6837
N      2.3339     -1.3028      4.0729
C      3.8475      1.6617      0.7240
O     16.8971      5.9268     15.4494
C      9.8447      6.0799      0.6209
H     -6.8883      8.9454      6.0458
C     -2.7248      4.5834      3.0831
C     -2.8105      8.7666      9.0541
H      7.6462      3.6695      8.2388
H      1.7363      1.1773      6.7384
H     -5.2671      9.3526      6.1988
C      9.7710      9.2643     13.5636
H     -8.0005      6.5582      8.2995
H      1.2579      6.5118      9.2008
H     -1.0305      9.4403      2.5025
H      0.8820      9.4898     -2.3578
H      3.6662      0.7233      0.2881
H     -0.9922      4.0825      7.8820
C     14.6717      7.5431     15.3242
H      3.8206      2.3178     -0.1302
C      0.8618      9.8752     -1.4753
H      8.2519      5.5765     10.6475
H      1.8617     -2.3016      3.7663
C      4.1493      8.4003      4.1486
C      7.8288      6.7730      2.6938
C     19.9310      9.6471     13.9767
C     18.8289      7.8723     14.5521
C      4.4935      6.0371      6.1165
C      1.9378      4.9762      2.6610
C      6.2874      5.4592     -0.0557
C      5.4942      7.5205      4.0170
C      8.5218      6.0462      0.5880
H      1.0013     10.7898     -1.7005
C      4.2415      5.0346      7.2438
C      1.6787      5.2350      1.0486
H     -3.5035      8.9118      7.0139
C      6.6722      6.9781      5.2245
H      1.9549      1.8499      4.5618
H     -2.6089      4.8930      2.0152
C      7.3966      5.1650      0.8917
H     -0.8212      3.7112      4.2281
O      7.8298      7.3805      5.4954
H      9.0643      8.8190     11.7039
H     20.7176      9.6594     14.7487
H      0.4880      2.8156      3.6258
H      2.3141      4.4168     -0.7356
H      4.8155      5.5811      4.1116
C      0.0294      7.7798     -1.4065
H      6.3487      4.9617      7.3265
O     -1.2524      0.2715      1.9738
C     15.5247      6.3302     15.8894
C     -2.1185      4.7570      5.4651
C      0.3929      7.1977      5.3477
H     -7.6347      8.8165      8.5971
H      3.3951      1.3348      4.4352
C      1.3519      5.9992      4.8159
H    -12.0760     12.3803      7.8658
H      1.1837     -0.4241      1.8937
H      0.1118     10.9678      2.5630
H     -2.1252      8.8673      9.8784
C     -4.6517      7.1342      7.9868
C     -8.7553     13.6218      8.6783
C      6.3222      7.2828      2.7698
C     -3.0923     10.2222      5.2820
C     -0.1770      6.4488      3.1381
C     -1.3837      6.4742      3.9078
H     -2.9688     12.0849      8.1161
H      2.2472      3.0858      0.3155
H     -2.4499      3.5982      7.0795
C    -10.8254     14.1568      9.0647
H     -1.4391     10.6381      6.8851
C      0.6676      5.2408      3.5317
C      5.2003      3.4860      2.6859
H      1.5040      4.8731      8.3926
H     17.5320      8.3522     20.4876
C      6.9196      3.7081      9.9314
H     -6.4101     11.3293      6.7375
C      1.9965      7.1404      8.7833
C     -1.3246      5.7713      6.1516
C      2.2620      0.0312      2.1703
C      1.2440      4.9149      5.9731
C      1.9507      6.6271      7.4505
C      1.7399      4.0182     -0.0083
H     11.3925      5.5864     14.4682
H      3.6554      1.4574      2.9110
H     -2.9705      9.9971      8.7918
H      4.9760      1.3310      1.2738
H     -4.1102      7.4319      7.0328
H      8.5791      3.2403      8.7880
H     -2.6004     10.7917      4.5445
H      6.5331      0.5392      4.5098
C     -0.2538      9.2155      4.9773
C     -3.8967      7.7561      9.0467
H      4.7083      6.6687      0.5375
H     -3.9757      8.7285      3.7187
C     -4.6429     10.9818      8.3385
H     -3.6155      3.8533      3.1767
H     -4.1137     10.2593      4.7521
C     -0.0819      7.9110      7.5435
C      0.5757      3.7318      5.5009
O      8.1355      4.8865      4.1361
C     -1.6037      8.3401      5.4648
C     -6.7718     13.7905      7.3589
C      5.0250      1.6453      6.5347
C      2.7218      0.7038      6.1202
H     -5.9052     13.7010      6.6869
H     -8.0188     16.0917      9.7052
H     -4.6884     11.7077     10.5569
H     -0.1702     11.1271      6.3957
H     17.6222     12.5661     18.1580
H      0.0739      7.7546      8.7584
C      1.8396      5.1674      7.2081
H     -0.4428      4.2381      2.0041
C      4.0171      5.2839      4.7970
C     -9.0803     15.9931      9.1734
H     20.4387     10.3703     13.3578
H     12.9421      6.0093     12.4384
C      8.3991      7.4337     10.2386
H     -9.2292     16.9846     10.8562
H     -0.9692      6.1444     -1.9256
C      4.3375      2.9448      4.5426
C     16.9834      9.6676     17.8848
C     -6.7163     12.0085      9.1571
C     -6.0970      9.1892      6.9092
C      5.5062      4.5759      8.0386
C     -7.1479     13.4344      8.7357
H      0.0614      4.3400      9.0609
H      8.5528      9.0740     13.3602
H     -7.0550     11.7964     10.4002
H     10.2129      5.0625      0.0981
C      1.2436      9.9950      1.2075
H     -9.7401     18.0355      9.5376
H     -2.4142      9.3148      3.2606
