270

C      7.4246      8.8779     13.8700
N     11.1388     -2.6649      1.2881
C      3.8307      1.5529      7.1086
C      1.9774      2.4263      2.8185
H      1.2640      0.6574      9.5315
C      8.0012      4.8325      2.7128
C      7.6881      3.4718      3.1058
C      3.2910      4.3463      5.6014
C      6.6818      9.8182     11.6768
C      3.2899      7.3072     19.6087
C      5.7098      1.9146      3.8918
C      6.4980     -3.3363      8.9035
C      0.7155      8.7277     13.4621
N      0.5341      2.6054      6.0441
H      6.3539      9.0912     11.0200
C     13.9548     -6.6158      0.5330
O     -0.5350      2.5381      0.1082
C      3.2241      4.1278      7.1419
C      2.7129      6.5942     17.4433
C      3.7810     10.6374     16.4705
H     -2.8606      3.5458      5.5950
C      4.3687      9.4214     16.2255
H      4.3563      6.6240      9.4731
H      6.1407     10.7694     11.1787
H      3.7967      4.6555      8.8068
H      0.0142      4.7045      6.1258
H      5.7339      1.5803      9.3429
C      3.3003      2.8399      7.9087
H      6.6616      1.4939      3.8522
C      7.8730     -0.3389      8.7005
C      6.2796      5.6909     10.3757
H      1.2225     -0.4650      8.0288
H      1.5780      5.5934      9.5871
C      6.3204      3.2015      3.4468
H      5.6944      3.4054      8.2986
H      3.3215     -0.8662      9.4927
H      3.3072      6.8054      8.8638
C      3.9135     11.0003     17.8662
C     10.2630     -4.4219      5.1454
O     14.9272     -4.1973      4.9979
C     -1.4059      7.9789      7.0361
C     -4.1701      7.7597     11.9953
C      7.5329      7.5686     12.9940
C      6.4134      6.9165     12.4684
H      5.5739      5.3201      2.9576
H      6.2033      4.0674     12.7603
H      5.0200      9.7673     14.1989
H      0.9191     -1.8092      5.2893
H      7.9976     -5.8483      9.3051
C      7.9708      2.4091      8.9589
H      0.4304      1.0652      1.8906
C      7.0348      5.9055     11.5043
C      8.2028      5.7027      3.8170
H      8.3989      7.3555      2.4454
C     -0.9571      6.5898      5.1941
H      3.4271      8.8247     21.3792
H      3.4823     11.3153     15.7099
H      4.1230      6.6431     15.7050
H      2.8248      4.8917      9.9202
H     15.9592     -7.2921      0.4517
C      9.5775     -1.4876      7.1861
C      6.6627      4.9035      9.1783
C      3.1057      7.8505     18.0145
C      5.5218      4.6428     13.4146
C      5.1039      9.0654     14.9646
H      9.5653     -5.0143      5.5964
H      8.3273      8.0154      3.9539
H      3.4762      0.8796     10.7557
H      7.0263     -2.7929      9.5254
H      5.1032     12.8779     18.5168
C     -0.2593      3.1495      8.1740
H      8.7317      9.7806     15.3809
C      0.2548      8.6166     11.9746
C      1.9240      2.4148      8.2255
C     12.4761     -6.7462      1.3150
H      5.6672      7.6018     12.3797
H     -1.6573      2.2174      5.2099
H      8.2479     -5.9749      7.5812
C     -2.8049      7.2727     12.4992
O      2.7032     10.0460     13.6244
C      7.2856     -4.0858      7.9833
C      3.8713      8.4378     20.5275
C      3.2634      1.3563      9.6027
C      2.9405      0.5112      4.8611
H      9.2930      9.4717     13.5704
H      6.5277      0.1213      6.7215
H     -1.7830      5.2312      6.5966
H      4.7006      6.5829     10.9403
C      3.9216      3.4930      3.4671
C     10.6747     -4.6816      0.3650
C     -1.8713      6.9836     11.3107
H      8.4842      1.6492      9.8036
C      5.0020      2.1225      5.1947
H      2.0054     -1.6006      6.8198
H      5.4422     12.3584     16.9889
C      2.1302     -0.9125      7.6502
C      4.2687     -1.8908      7.6208
C     -1.7121      4.8792      3.3032
C      3.5934      9.6202     19.6673
C      2.7187      3.6791      2.9190
C      5.4280      6.8613     10.1804
H      2.4052     -0.2200      6.8880
H      2.9067      7.8586     13.3983
H      0.1314     11.9314     14.5463
H      8.0220      6.2441      5.7371
H     13.5328     -8.8061      0.4631
O      5.5599      7.2418      6.5377
C     13.7811     -4.9129      4.6878
H      4.7312     -1.3648      6.9216
C     10.2256     -4.3540      3.6209
C     10.5864     -5.7066      3.1355
H      8.3535     -2.2924      8.5855
H      8.5697      3.1199      3.4664
C     -2.7028      7.8311      7.5807
H      3.8177      4.2882     13.2853
C      2.5897      0.8910      2.0963
C     12.8436     -4.5016      1.8120
O      4.3124      5.1168     12.7283
O      7.5741      3.6053     10.8852
C     -0.1549      3.0585      1.3206
C      0.1741      3.8217      4.1227
C      6.9419     -1.9497      6.9832
H      2.6706     10.0653     18.9192
H     12.3528     -3.1301      4.4614
H     -1.5850      8.9357     10.3423
O     13.0443     -3.2922      6.1237
C      5.7853     -2.1724      8.1043
C      0.9485      6.9666      6.8714
C      1.7595      7.5907     13.8943
H      2.7512      8.5955     15.4055
C     13.5083     -5.3236      2.9689
H      8.6650      0.3474      8.4904
C      1.9495     -0.2553      4.2249
C      0.8018      3.0135      7.4039
C     10.2592     -2.0047      6.1511
C     -2.2759      3.0515      4.9215
C      4.7597     12.1270     17.7852
C      3.2229      3.7579     10.2571
C      0.6355      2.3798      2.1913
C     11.8141     -5.4190      1.3461
C      3.3670     -0.9486      8.4751
N      1.0595     -0.8015      5.1558
C      2.3631      0.4133      0.7707
C      9.5815      6.2518     13.5217
H      5.7010      9.5477     18.8440
C     -2.6301      4.3113      2.5589
C     -3.0882      7.6656      9.0065
H      8.5123      2.3530      8.0943
H      1.7535      1.1977      6.6957
H      7.3452     -4.0668      5.7504
C     10.9606     -3.4096      0.1963
H      5.9164      7.7758     10.1761
H      1.7683      7.2991      9.4325
H     12.4817     -3.6073      2.2389
H      1.4074      8.7794     10.2505
H      2.1575     -0.7176      0.6129
H     -0.4033      2.6871      9.2284
C      1.9969      7.8095     15.3970
H      1.1022      0.6474      0.5534
C      1.4704      8.7404     11.3882
C      7.2455     10.0277     12.9292
H      7.9059      5.2355     11.7261
H      0.8736     -0.4604      6.0629
C      4.3404      8.5701      4.4483
C      7.9371      7.2112      3.5005
C      8.8206      9.2378     14.5375
C      6.4784      8.4811     15.0060
C      4.3950      6.3356      6.4441
C      2.2067      5.2795      2.4303
C      6.2565      5.9857     13.7147
C      5.6290      7.5194      4.1093
C      8.3632      6.4084     13.9798
H      2.4558      9.1740     12.2172
C      4.4197      4.9748      7.6209
O      0.3113     10.9381     14.0248
C     15.0044     -7.6143      0.8296
H     -3.4331      8.1978      6.6218
C      6.3046      7.1747      5.4451
H     -0.4050      2.4101      5.7106
H     -2.9946      4.5373      1.5053
C      7.4056      5.5898     14.5043
H      0.5000      3.0752      3.2540
O      7.5992      7.1568      5.6843
H     -5.4689      8.1185     10.4402
H      9.0861      8.1873     14.6279
H     14.9065     -8.3714     -0.8727
H      4.8034      6.0817      4.7229
C     -1.0534      8.1951     11.1713
H      6.3829      4.4862      7.0968
C      2.9407      6.6957     15.9279
C     -1.2175      3.9977      4.4393
C      0.6916      6.7695      5.4105
H      5.8866     -4.1365      9.4776
H      3.0017      2.3887      4.9176
C      1.5879      5.8657      4.8541
H      1.1130     -0.5450      2.4235
H     -3.3028      6.6550      8.8661
C      7.4515     -5.6234      8.3567
C      3.9349      0.4533      8.2798
C      6.6209      7.8182      3.1840
C      9.4948     -2.9571      5.3361
C     12.9677     -6.7155      2.9374
C     -1.3570      6.4509      3.7418
H     10.1772     -0.6412      7.6123
H     15.0897     -9.8165      0.4136
H      4.6481      8.4945     14.0121
H     -2.9022      2.7277      3.7973
C      1.8707      1.5057      9.2050
H     11.1503     -1.4705      5.8891
C      0.9550      5.2710      3.4890
C      5.1842      4.1649      3.1180
H      1.4824      4.3612      7.6516
H      5.0141      8.2212     20.8119
C      7.6467      3.7696      9.7415
H     11.3282     -1.7103      1.3784
H      6.7318     -1.5164      6.1045
C      2.2231      6.4764      8.9697
C     -0.9607      5.1107      5.7934
C      1.9767     -0.1380      2.9036
C      1.7562      4.6265      5.5712
C      2.1744      6.4467      7.5085
C     14.5089     -8.8770      0.1905
H     11.8361     -7.6636      1.1918
H      3.5895      1.1113      2.0608
H     -3.5807      9.6155      9.4627
H      3.3343      0.6471      0.3947
H      6.6064     -6.2066      7.9368
H      6.8935      2.4172      9.0228
H      9.4018     -2.6646      4.2208
H      5.1646      1.4621      3.0454
C     12.5744     -4.0012      5.1021
C     -3.5439      8.7398      9.7905
H      9.2266     -3.8508      3.5148
C      8.1690     -1.5672      7.7500
H     -3.1836      3.4233      2.3864
H      8.4090     -2.9286      5.9319
C     -0.0574      7.5518      7.5538
C      1.0340      3.4865      5.1270
O      9.0044      5.6067      4.7506
C     11.5833     -4.9428      5.5710
C      6.2221      1.0558      7.2955
C      5.0993      1.6155      6.4326
C      2.7338      1.0529      6.0449
H      6.9826      1.9409      7.0127
H      4.8900      2.6130      9.8640
H      8.3956     -0.9028      9.7354
H     12.1213     -2.9135      6.3886
H      3.9597      0.3922      4.4517
H      0.2180      8.0292      8.6617
C      1.9445      4.9890      7.0616
H     -0.5190      3.8391      1.8921
C      3.9328      5.6590      5.1558
C      3.9164      2.6431      9.3423
H     13.5950     -6.8738     -0.4361
C     -4.3754      8.2096     10.8296
H      4.0889      4.1713     10.8080
H      7.3086      5.4692      8.6282
H     -1.3651      6.0378     11.3301
C      3.8247      2.9540      4.7648
C      4.5348      9.8204     18.4717
C      6.5572     -0.3766      9.2414
C      7.1824     -3.4930      6.7247
C      5.8384      4.4318      8.0246
C      5.4472      0.8139      8.6593
H     -1.1732      2.4981      7.5589
H      7.2655     11.1645     13.2416
H     10.5541      5.9843     14.0765
C      1.4293     10.0546     13.7271
H      2.4505      3.6361     10.8712
H     10.9387     -3.5532      3.1749
