280

C     20.0744      8.7688     13.7247
N     10.6631     -2.1308      1.3909
C      3.7726      1.3920      7.2572
C      2.1301      2.3734      3.1559
H      1.2592      1.0634      9.7900
C      7.5280      4.8842      2.6093
H      9.6580     -5.4972      2.6732
C      7.0547      3.5738      2.9398
C      3.2642      4.4230      5.6140
C     18.6262     10.5044     12.0504
C     16.2875      7.5541     19.5257
C      5.6763      1.9270      4.0503
C      6.2743     -3.2850      9.1813
C     14.0361      8.4514     13.4133
N      0.5811      2.6450      5.8983
C     13.6377     -6.8442      0.7123
O     -1.1794      2.4828      1.1654
C      3.1554      4.4492      7.2524
H     13.3217      6.9096     10.8968
C     15.7857      6.3814     17.4262
C     16.8788     10.4868     15.8737
H     -2.7320      3.4045      6.0169
H      4.4124      6.6587      0.3353
C     16.9970      9.0568     15.9063
H      4.6718      7.1503      9.0270
H     18.7330     10.9839     10.8133
H      3.8951      5.6972      8.2729
H     -1.1485      5.2542      6.7149
H      6.0003      1.6829      9.1942
C      3.1404      2.8317      7.9600
H      6.7291      1.3593      3.9832
O     14.4858     10.2723     15.2189
C      8.0405     -0.4696      8.9693
C      6.1402      5.7206      9.9934
H      1.8568     -0.5162      9.1547
H     15.9555     -6.7800      9.2299
C      5.9126      3.3785      3.4104
H      4.8409      3.5303      8.0563
H     17.5484     10.7388     12.6377
H      4.4919     -1.1974      9.2918
H     15.4344     -4.9965      9.4241
C     17.5137     10.9160     17.2143
C     10.2492     -3.9624      4.7355
O     14.8918     -4.0032      4.7765
C     11.3544     -4.6589      6.8720
C      8.7866      7.9849     12.1774
C     20.6190      7.4175     13.1041
C      6.4678      6.6962     -0.5849
H      5.1691      4.5668      1.5584
H     17.2216      8.5707     13.8548
H      1.2587     -2.1531      4.1327
H      6.9701     -5.9150      8.8280
C      8.0295      2.4799      8.9904
C      7.2327      6.3277     11.0205
C      7.9330      5.8634      3.5930
H      8.3312      6.9635      2.0861
C     -1.0978      6.7871      5.2187
H     15.9184      8.8776     21.1971
H     17.5204     10.7554     14.8557
H     16.7444      5.8997     15.5496
H      2.6315      3.4511     10.8907
H     15.8444     -7.4739      1.0677
C      9.8036     -1.3495      7.6804
C      6.2916      4.6350      9.0446
C     16.0652      7.7989     18.0138
C      5.4157      4.4038     -0.2535
C     17.7227      8.5064     14.8568
H      9.2273     -4.6212      4.8961
H      8.4493      7.9737      3.6765
H      3.6673      0.9905     10.6082
H      6.8296     -2.7264     10.0156
H     18.3166     12.2082     18.7059
C     -0.3715      3.5297      7.9895
H     20.7506     10.4863     14.7971
C     13.4378      8.4810     12.0381
C      1.8271      2.4843      8.2689
H     11.1187      6.2511     10.7994
H     12.3630     -2.8581     -1.0987
C     12.3705     -6.7594      1.4938
H      5.8869      7.5792     -0.9814
H     -2.4878      2.3656      5.1041
H      7.2046      6.7347      6.8415
C     10.1642      7.4893     12.7136
O     15.8613     10.0054     13.4692
C      7.2066     -3.9550      8.1742
C     16.7071      8.6435     20.4412
C      3.4392      1.5392      9.6162
C      2.7215      0.5396      5.2021
H     21.4717     10.3117     13.4431
H     11.1614     -1.2458      2.1648
H      6.5678      0.2974      6.5416
H     -2.5988      5.1491      6.4804
H      4.0423      6.3231     10.5124
C      3.7413      3.7239      3.4835
C     11.1073     -4.6389      0.5727
C     11.3146      6.8974     11.7420
H      8.8587      2.3514      9.6541
C      4.7740      2.0285      5.2249
H      2.1531     -2.1437      9.4814
H     18.5532     12.6459     17.0469
C      2.3684     -1.3817      8.6917
C      4.6144     -1.8600      7.5193
C     -2.0814      5.2213      3.3911
C     17.0393      9.8770     19.5310
C      2.4548      3.8585      3.0521
C      5.0745      6.6129     10.0991
H      1.8554     -1.6682      7.6592
H     15.6515      7.0445     13.3689
H      8.7057      5.8409      5.3934
H     15.6509     -9.1295      0.3686
O      5.6351      7.5080      6.6094
C     13.7243     -4.6028      4.5746
H      4.8944     -1.2708      6.6143
C     10.6810     -4.0094      3.3362
C     10.7579     -5.3137      2.8558
H      8.0688     -2.5095      8.7246
H      7.7097      2.6885      3.0488
C     10.2122     -4.4807      7.6257
H      1.7386      1.6746      4.1841
H     12.3478     -1.5727     -0.0750
H      3.5676      4.5776     -1.4320
C      3.1166      1.2736      2.5899
C     12.9771     -4.4639      1.9526
O      4.0549      4.9416     -0.5889
O      7.4386      3.8651     10.8860
C     -0.2429      2.8256      1.9184
C     -0.0939      4.0126      4.1578
C      7.4024     -2.0267      7.1731
H     16.0003     10.3216     19.2019
H     12.5351     -2.9636      4.2534
H     12.2411      8.0140     10.3469
O     13.0254     -2.8225      6.0571
C      6.1224     -1.9650      8.1384
C     13.6979     -5.8253      6.7715
C     14.7620      7.2173     14.0255
C     13.6030     -5.2799      3.0686
H      8.4203      0.6272      8.6387
C      1.7819     -0.1499      4.1239
C      0.6538      2.8652      7.4968
C     10.4217     -1.9682      6.6350
C     -2.2781      3.3985      5.0436
C     18.2735     11.9121     17.6750
C      3.0780      3.9330      9.9571
C      0.9076      2.1338      2.4007
C     11.9780     -5.2645      1.3131
C      3.8491     -1.0671      8.5429
N      1.2357     -1.2300      4.6715
C      2.9350      1.5738      1.0448
O      5.0098      6.1935      1.0805
C      9.6723      6.2064      0.6645
H      6.4040     -3.5696      6.2002
C     -2.7250      4.1825      2.6944
C      9.8738     -5.3948      8.7197
H      7.9935      2.5790      7.9135
H      1.8184      0.1911      7.1345
H      8.0708     -4.0818      6.3473
C     10.8450     -3.2359      0.4259
H      5.5858      7.6948     10.3406
H     14.0276     -6.4673      9.0131
H     12.4601     -3.3778      1.7823
H     13.8437      9.5170     10.1617
H     13.6771     10.7568     15.5537
H      3.4451      2.5392      0.7062
H     -1.8486      3.1174      1.5971
H     -0.7038      3.7161      9.0291
C     15.0329      7.4001     15.3671
H      3.6922      0.8983      0.7594
C     14.1731      9.2811     11.2644
C     19.5556      9.5008     12.5169
H      7.9716      5.8032     11.5026
C     11.4499     -2.3122     -0.6764
H      1.3365     -1.6019      5.5752
C      4.2649      8.5372      4.2454
C      7.8299      7.3250      3.0903
C     21.1615      9.8286     14.3338
C     19.1117      8.3484     14.9215
C      4.4377      6.4945      6.4396
C      1.6656      4.9063      2.5501
C      6.0777      5.6646      0.3203
C      5.4969      7.5077      4.2345
C      8.3779      6.2978      0.9030
H     14.6607     10.0915     11.8514
C      4.3579      5.3016      7.5000
C     14.6920     -7.8374      1.0465
H      9.2268     -4.0381      7.0934
C      6.1989      7.4122      5.3068
H      0.3338      1.7474      5.2783
H     -3.3471      4.5787      1.9408
C      7.2906      5.4898      1.2954
H     -0.2683      2.7813      3.6356
O      7.5325      7.0357      5.7730
H      7.5256      8.3065     10.2847
H     21.8904      8.9770     14.3313
H     13.9380     -9.6998      0.4001
H      4.7001      5.2304      4.4451
C     12.6829      7.5390     11.2442
H      6.5186      4.3110      7.1284
C     15.7755      6.1668     15.8706
C     -1.5627      4.5155      4.5231
C      0.4657      7.0142      5.3608
H      5.2820     -3.5014      9.2686
H      2.7991      2.6433      5.1777
C      1.4277      5.9350      4.7382
H      2.3099     -0.7789      2.0431
H     15.7814     10.5754     16.0938
H      9.2895     -6.1969      8.3019
C      7.6076     -5.1767      8.1742
C      4.2053      0.5802      8.5689
C      6.4676      7.6506      3.0747
C      9.9193     -2.6577      5.4980
C     12.8674     -6.5526      2.9716
C     -1.4693      6.6590      3.6631
H     10.3282     -0.8517      8.3543
H     14.9657     -8.4544     -0.8692
H     16.9791      7.4990     14.9261
H      5.2109      3.5723      0.2861
H     -3.2343      3.6273      4.5454
C      1.9708      1.4256      9.0953
H     11.4123     -1.8376      6.8745
C      0.6639      5.2141      3.5492
C      4.9008      4.1460      2.7648
H     13.9080     -7.9052      7.7007
H     17.6688      8.0265     20.9427
C      7.0953      3.6598      9.4782
H     10.2591     -1.1311      1.0632
H      7.4060     -1.2408      6.1954
C     15.1216     -6.0551      9.0878
C     -1.6010      5.5461      5.6983
C      2.3701     -0.0539      2.8954
C      1.6385      4.8431      5.7781
C     15.0803     -6.1516      7.5813
C     14.7129     -8.9513      0.0846
H     12.1253     -7.7218      1.0994
H      4.1838      0.9713      2.8791
H      9.5099     -3.9354     10.3553
H      8.0846     -5.8539      7.5234
H      7.5192      1.3352      9.1217
H     10.2499     -2.1970      4.4396
H      5.1445      1.5154      3.2378
C     12.6956     -3.6999      4.9923
C      9.3892     -5.0972      9.9985
H      5.9852      4.3162     -1.1810
H     10.1696     -3.4190      2.8140
C      8.4505     -1.5371      8.0115
H     -2.9538      3.1906      2.9290
H      8.8249     -2.5360      5.4562
C     12.6938     -5.1770      7.3841
C      0.7237      3.7793      5.3681
O      8.8777      5.4304      4.4825
C     11.3395     -4.5376      5.4353
C      6.2299      1.3028      7.1396
C      4.9738      1.5647      6.4236
C      2.6217      0.7904      6.4871
H      6.8576      2.1539      7.0076
H      4.9721      2.8038      9.3148
H      8.1535     -0.3331     10.0069
H     13.8890     -3.0740      6.3401
H      3.6911      1.0018      4.8544
H     12.6549     -5.3654      8.5726
C     14.8069     -7.6444      7.2260
H      0.2074      3.7781      1.7992
C      4.0068      5.6361      5.2460
C      3.8704      2.8732      9.3035
H     13.4455     -7.0682     -0.3341
C      8.2439      7.6355     10.8715
H      2.4469      4.0807      9.1358
H     11.7047      6.0286     12.5252
C      3.7168      3.1993      4.9706
C     17.4475      9.6184     18.1315
C      6.5438     -0.7409      8.8932
C      7.3297     -3.4082      6.8004
C      5.6735      4.3171      7.7577
C      5.6957      0.8679      8.4665
H     -1.0168      3.5214      7.1882
H     20.4331      9.2914     11.8526
H      6.1416     -0.9373     10.0059
H     10.1223      5.9711      1.5207
C     14.7892      9.6309     13.9369
H      3.7399      4.6709     10.0311
H     11.8246     -4.1614      3.4671
