277

C     20.0423      8.7849     13.7212
N     10.5980     -2.1740      1.5022
C      3.8474      1.2817      7.3156
C      2.1601      2.3867      3.0570
H      1.3661      0.9159      9.7801
C      7.3470      4.9122      2.5463
H      9.7516     -5.8938      2.5090
C      7.0414      3.5767      2.9071
C      3.2969      4.4401      5.6177
C     18.8164     10.6302     11.8778
C     16.2420      7.4943     19.5773
C      5.6614      2.0834      4.1085
C      6.3045     -3.3181      9.2439
C     13.9421      8.4704     13.4698
N      0.5317      2.4983      5.9145
C     13.7319     -6.8264      0.7885
O     -1.1622      2.4502      1.1567
C      3.2167      4.3882      7.2108
H     13.4364      6.7539     10.8180
C     15.8199      6.4471     17.4484
C     17.0476     10.6316     15.8993
H     -2.4994      3.8859      6.0579
H      4.3007      6.5531      0.4718
C     16.7716      9.0258     15.8940
H      4.4278      6.8896      9.2310
H     19.0740     11.1786     10.9753
H      4.2843      5.5986      8.5239
H     -0.5926      5.2232      6.3898
H      5.9368      1.5753      9.3400
C      3.1604      2.9303      7.8912
H      6.5704      1.6095      4.5011
O     14.5978     10.1879     15.2357
C      7.8465     -0.6352      8.8825
C      6.2497      5.7151      9.9547
H      1.9411     -0.2944      9.1559
H     15.3427     -7.0858      9.1811
C      5.8581      3.4610      3.4162
H      5.3747      3.2387      7.9840
H     17.9677     10.8712     12.3243
H      4.0810     -1.4293      9.4376
H     15.1798     -4.9577      9.6267
C     17.6254     10.8350     17.1410
C     10.1942     -4.1460      4.9227
O     14.9178     -3.9686      4.8524
C     11.2938     -4.5465      6.7735
C      8.6399      7.9667     12.1684
C     20.6758      7.5553     13.1883
C      6.5924      6.7280     -0.6426
H      5.0761      4.5116      1.6437
H     17.2326      8.8063     13.8745
H      0.8527     -1.9426      3.7168
H      6.9971     -5.9588      9.2717
C      7.9127      2.5103      8.9132
C      7.3006      6.3042     11.1011
C      7.8870      5.9244      3.5798
H      8.1721      7.3702      2.0840
C     -1.2048      6.9079      5.2153
H     15.8771      9.1205     20.8492
H     17.1532     11.1542     15.0297
H     16.8122      6.0671     15.4092
H      2.9684      3.3489     10.8377
H     15.9889     -7.5368      0.8815
C      9.7861     -1.3828      7.6942
C      6.2544      4.6463      9.0214
C     16.1112      7.7518     18.0225
C      5.4912      4.4964     -0.2272
C     17.7030      8.4592     14.9160
H      9.3280     -4.9790      4.9651
H      8.7082      7.8704      3.4920
H      3.4940      0.9775     10.5846
H      7.0267     -2.9253      9.9923
H     18.5653     12.1047     18.9486
C     -0.3667      3.5752      7.9782
H     20.7029     10.6493     14.5798
C     13.5213      8.5552     12.1365
C      1.7846      2.3597      8.1571
H     11.1498      6.2166     10.8326
H     11.9255     -3.3356     -1.0273
C     12.4605     -6.7453      1.5165
H      5.5775      7.2047     -0.7577
H     -2.0659      2.4598      5.0395
H      7.0142      6.6623      6.4488
C     10.1144      7.5505     12.5875
O     15.9740      9.9999     13.5169
C      7.1794     -4.0132      8.2125
C     16.8555      8.7074     20.4648
C      3.4554      1.3836      9.6197
C      2.5752      0.6120      5.2155
H     21.5258     10.0364     13.2277
H     11.2538     -1.7284      2.0365
H      7.0629      0.4543      7.0192
H     -2.5256      5.3551      6.2635
H      4.2717      6.1805     10.5229
C      3.7464      3.9881      3.3408
C     10.9937     -4.4601      0.4416
C     11.3077      6.8005     11.6831
H      8.4943      2.1700      9.8010
C      4.7617      2.0689      5.1979
H      2.6974     -2.0574      9.5697
H     18.4228     12.9044     17.2065
C      2.4237     -1.2462      8.8242
C      4.6657     -1.8910      7.3428
C     -1.9996      5.1506      3.3935
C     16.9872      9.8303     19.5904
C      2.4429      3.7027      3.0261
C      5.1665      6.7012     10.0751
H      2.1113     -1.6021      7.8851
H     15.5755      7.2400     13.3316
H      8.4789      5.8934      5.4561
H     15.8822     -9.3042      0.0558
O      5.5646      7.3745      6.5831
C     13.7390     -4.7955      4.5644
H      4.6853     -1.0240      6.5927
C     10.5300     -3.9847      3.4434
C     10.6793     -5.2705      2.8390
H      8.7555     -2.5587      8.5298
H      7.7041      2.8484      2.6548
C     10.2801     -4.3968      7.5347
H      1.6094      2.0069      4.2529
H     11.9698     -1.1665     -0.4639
H      4.0547      4.7449     -1.6680
C      3.0554      1.1893      2.5242
C     13.0373     -4.2962      1.8213
O      4.2208      4.8478     -0.5402
O      7.4589      3.8378     10.7055
C     -0.1316      2.6686      2.0626
C     -0.0119      3.9735      4.0738
C      7.3149     -1.9511      7.1881
H     15.6793      9.7081     19.2555
H     12.2701     -3.0518      4.2310
H     12.7026      8.1795     10.3433
O     13.0463     -2.9191      6.1526
C      5.9855     -1.8963      8.2117
C     13.6060     -5.6976      6.7747
C     14.7964      7.0545     13.9291
C     13.5881     -5.2031      3.0395
H      8.1522      0.4522      8.3882
C      1.9586     -0.2757      4.1461
C      0.6427      2.8134      7.3959
C     10.4324     -2.1048      6.7249
C     -2.4895      3.4153      5.0651
C     18.3105     11.8918     17.6996
C      3.1119      4.1884     10.0008
C      1.0230      2.0085      2.2959
C     11.8070     -5.2863      1.3500
C      3.9034     -0.9492      8.4378
N      1.2423     -1.2583      4.5768
C      2.9002      1.5446      1.0795
O      5.1206      6.4075      1.0571
C      9.6764      6.3756      0.6882
H      6.4747     -3.3999      6.2270
C     -2.6503      4.2141      2.6961
C     10.0278     -5.4782      8.7681
H      8.1879      2.4689      7.8536
H      1.7468      0.4297      6.9673
H      8.1255     -3.8125      5.9625
C     10.8946     -3.1199      0.5499
H      5.1073      7.5823     10.7023
H     14.0730     -6.3770      9.0387
H     12.3609     -3.5423      1.8851
H     13.6733      9.5359     10.2073
H     13.5107     10.1284     15.2128
H      3.3363      2.7368      0.9851
H     -1.6667      3.2216      1.6516
H     -0.3746      3.9304      8.9252
C     15.2604      7.4117     15.3529
H      3.4752      0.9245      0.3062
C     14.0798      9.3331     11.1200
C     19.5009      9.6008     12.3513
H      8.1196      5.6302     11.5502
C     11.3741     -2.2608     -0.6083
H      1.5134     -1.4159      5.6353
C      4.2777      8.3602      4.2776
C      7.9392      7.2285      3.1581
C     21.0293      9.6473     14.2593
C     19.1868      8.5484     14.9687
C      4.4750      6.4005      6.4733
C      1.8296      4.9848      2.6198
C      6.1525      5.6703      0.2932
C      5.5686      7.4101      4.2854
C      8.2700      6.3315      0.8862
H     14.8650     10.1217     11.5664
C      4.4899      5.2874      7.4481
C     14.6871     -7.8817      1.0732
H      9.5781     -4.1737      6.6008
C      6.3511      7.5272      5.4488
H      0.0794      1.7125      5.3072
H     -2.9756      4.7235      1.8471
C      7.3285      5.4626      1.3453
O      7.5830      7.1131      5.9680
H      7.1122      8.1543     10.8415
H     22.1007      9.3879     14.7747
H     13.7822     -9.6555      0.2964
H      4.6640      5.6309      4.2938
C     12.7153      7.5141     11.2210
H      6.3707      4.2383      6.7947
C     15.7201      6.0240     15.9509
C     -1.6493      4.6142      4.6328
C      0.3322      6.8786      5.2851
H      5.4502     -3.9192      9.7461
H      2.9166      2.4823      4.4791
C      1.4798      5.8950      4.6756
H      2.3108     -0.7236      2.0168
H     15.9761     10.9020     16.2356
H      9.4352     -6.6294      8.3118
C      7.4987     -5.2837      8.2618
C      4.2440      0.5328      8.5908
C      6.3884      7.7455      3.1106
C      9.9454     -2.5629      5.4199
C     12.7500     -6.7003      2.9592
C     -1.4038      6.6448      3.6243
H     10.3288     -0.7972      8.4413
H     14.6765     -8.7686     -1.1335
H     17.0438      7.3288     14.8775
H      5.1501      3.6281      0.4889
H     -3.6258      3.5673      4.7493
C      2.0785      1.3385      9.0953
H     11.3911     -2.6391      7.0627
C      0.5487      5.2052      3.4655
C      4.8941      4.1613      2.5781
H     14.0398     -7.9045      7.7319
H     17.6215      8.2532     20.8470
C      7.3499      3.6994      9.5864
H     10.1231     -1.1753      0.9279
H      7.0027     -1.0619      6.6894
C     15.1032     -6.0035      8.9534
C     -1.5655      5.4155      5.8099
C      2.4138     -0.0890      2.9111
C      1.7236      4.7284      5.6196
C     14.9896     -6.2586      7.3588
C     14.7262     -8.9163      0.0944
H     11.7359     -7.5023      0.9406
H      4.1355      1.4641      2.5781
H     10.1033     -4.0926     10.3320
H      8.1258     -5.8601      7.6276
H      7.4003      1.6495      8.8921
H     10.5050     -2.1013      4.4667
H      5.3530      1.5329      3.2494
C     12.6572     -3.7356      5.0253
C      9.5622     -5.0468     10.0403
H      5.5891      3.7450     -1.1885
H     10.1811     -3.1584      3.0266
C      8.3289     -1.6602      8.0848
H     -2.5047      3.2814      3.4052
C     12.5102     -5.2085      7.4196
C      0.6685      3.8010      5.3185
O      8.7973      5.4506      4.5167
C     11.4626     -4.4441      5.4282
C      6.3272      1.2502      7.1049
C      4.8985      1.6791      6.4517
C      2.6128      0.9304      6.5810
H      6.9940      2.1166      7.0218
H      4.7514      2.7268      9.6518
H      8.3468     -0.8675      9.8920
H     14.0680     -3.3264      6.2003
H      3.6333      0.5851      4.8233
H     12.6847     -4.9551      8.4460
C     14.8774     -7.6760      7.1012
H      0.0721      3.6765      1.8557
C      3.9976      5.6284      5.2165
C      3.6632      2.7873      9.3242
H     13.3679     -6.7790     -0.2229
C      8.3554      7.5929     10.9404
H      2.1126      4.4794      9.4591
H     11.5432      6.1100     12.5280
C      3.7776      3.1399      4.8807
C     17.3624      9.7584     18.1232
C      6.4691     -0.6303      8.9127
C      7.3542     -3.4208      6.7885
C      5.7040      4.3134      7.7175
C      5.7300      0.8265      8.6259
H     -1.2152      3.3297      7.1906
H      5.8487     -0.2596      9.6432
H     10.2821      5.8745      1.4974
C     14.8844      9.6969     13.9933
H      3.9006      4.7437     10.0378
H     11.8196     -3.8734      3.3673
