277

C     19.6367     -4.3736      0.7478
N     -2.1023     10.3981      1.5778
C      3.6202      1.4677      6.9737
C      2.1498      2.6635      2.3576
H      1.6130      1.0489     10.0341
C      7.2960      5.1251      2.2623
H      9.8561     -6.0389      2.8925
C      7.4436      3.7030      2.8915
C      3.5722      4.0833      5.4359
C     16.1420     -5.5417      6.4851
C      6.2418      1.7614      3.8317
C     -6.7990      8.3477     -4.1636
C     13.8218     -4.3900      0.9074
C     -2.4757     12.0350     -0.6262
C     -4.2102     13.7621      0.4600
N      0.2881      2.8454     -6.9068
C      0.8935      6.1203      0.9535
O     -1.5551      2.6737      1.8778
C      3.2998      4.0914      6.9782
H     -0.0910      6.4116     -1.6091
H     -5.2195     14.0145      0.6078
C     15.7749     -6.6047      4.4042
C     16.7258     -2.5045      3.2203
H     10.6010     -9.3838      6.9311
H     17.8908     -7.1934      2.7625
C     17.1445     -3.8046      2.8795
H     -8.3698      7.6965     -2.9332
H      2.4797      4.4260      9.7505
H     11.5450     -6.7985      7.5606
H      5.8411      1.4071      8.8574
C      3.1004      2.6431      7.6558
H     -1.8837     12.0469     -2.6056
H      7.1430      1.2058      4.1051
O     13.9214     -2.3896      2.5785
C      7.7268     -0.7263      8.8159
C     -2.3890     11.2140     -1.7965
C     -6.8719      6.0320     -3.3565
H      2.4182     -0.0432      6.1152
H      3.9625      5.1431      8.2955
C      6.2667      2.9387      2.9169
H     -6.7726      3.6447     -5.6385
H      4.0888     -1.0451      9.4443
H      2.0787      8.0525     -4.3697
C     17.2408     -2.0413      4.4665
C     10.2800     -4.0252      5.0782
O     15.1786     -4.3348      4.6713
C     -1.3115      8.4067     -5.8128
C     -4.1983      8.0568     -1.3155
C     20.3460     -5.2365     -0.2711
C     -6.7447      7.0904     -0.9713
H      5.0123      3.7617      1.5618
H     18.0640     -3.3311      1.0450
H     -5.7343      6.1667     -4.6106
C     -5.5483      2.7909     -4.8218
H      0.4100      1.0789      2.6532
C     -5.9190      6.3825     -1.9486
C      8.2846      5.9878      3.2065
H      8.8262      7.9333      2.2074
C     11.9516     -6.1603      5.1262
H     16.4166     -4.2367      8.2702
H     15.8377     -2.0067      3.1041
H     -8.0826      5.6175      0.5047
H      2.7817      5.7259      1.1426
C      9.7763     -1.6069      7.9524
C     -6.4862      4.8746     -4.0436
C     16.2348     -5.2698      5.0376
C     -3.3283     14.7757      0.5843
C     -7.7467      4.8706     -1.1413
C     17.7712     -4.0662      1.6724
H      9.4350     -4.4726      5.4804
H      8.0462      7.6480      4.1821
H      4.4530      1.1333     10.3079
H     18.7599     -0.8688      5.0234
C     -0.6480      3.3287     -4.8374
H     21.4617     -3.1813      1.9748
C     13.2564     -4.4762     -0.4648
C      1.7715      1.8816      8.2248
H     -1.5860      6.4413     -2.3539
H     -1.1705      9.1314     -1.6270
C     -0.4646      6.1182      1.5841
C     -2.8803      7.4575     -0.6195
O     15.6952     -2.9445      0.9756
C     -5.6295      8.1507     -4.8966
C     16.6735     -4.4335      7.2824
C      3.7857      1.3373      9.3679
C      2.6012      1.1753      4.6572
H     -4.4937     11.8692     -0.7581
H     -1.2475     10.8086      1.9512
H      5.7434     -0.1470      6.0578
H      2.6551      6.7680     -3.7260
C      4.0980      3.5787      3.4589
C     -2.4964      8.2510      0.8816
C     -1.7025      6.8586     -1.2642
H     -4.6538      2.2968     -4.1325
C      5.3945      2.0682      5.1348
H      2.0076     -0.9862      9.3679
H     18.2638      0.0698      3.9990
C      2.1605     -0.3944      8.5192
C      4.4419     -2.0175      7.4312
C     10.8452     -7.6668      4.0766
C     16.9176     -3.2323      6.6878
C      2.7575      3.6504      2.9662
C     -7.8700      7.2012     -3.6936
H      1.5444     -0.5063      7.4490
H     15.4796     -5.1447      0.6080
H     -1.7778     12.9225     -0.2764
H      0.7643      3.7045      0.0754
O      5.6210      6.9127      6.6246
C     13.8600     -4.8321      4.6466
H      4.4278     -1.3773      6.5686
C     10.4308     -3.9765      3.6979
C     10.7437     -5.5194      3.0464
H      8.8116     -2.4794      8.8812
H      8.1100      3.2675      3.6684
C     -2.6297      8.2665     -5.3674
H     -3.7537     15.7240      0.7145
H      2.4760      3.9404      5.2539
H     -0.8558     10.1019     -0.6742
H     -9.2170      4.8726      0.0399
C      3.2151      1.5709      2.0491
C     12.6926     -4.3759      2.0510
O     -8.7577      4.1765     -0.4683
O     -5.5518      3.5476     -2.5320
C     -0.1456      2.9061      1.9580
C      0.1195      3.9409     -8.7832
C     -5.8587     10.2653     -5.5498
H     -3.3436     10.8479     -2.1478
H     16.1719     -2.4834      6.4054
H     -0.3278      9.9679     -8.3228
H     -0.1763      7.8430     -2.7330
O      0.9451     10.0642     -6.7935
C      5.8682     -2.2483      8.2649
C      0.7073      7.0791     -6.0807
C     14.5605     -5.5149      0.9771
H     15.3617     -4.5581      2.9013
C     13.4665     -5.3376      3.1655
H      7.8838      0.1904      8.2392
C      2.3836     -0.0480      3.8391
C      0.4662      2.7509     -5.2696
C     10.4817     -1.7719      6.8348
C     10.8472     -9.4072      5.7970
C     17.7217     -0.7073      4.6491
C      3.3946      3.8000      9.9394
C      0.7523      1.9280      2.3041
C     -1.4126      7.6739      1.6989
C      3.5609     -0.7400      8.5094
C      3.4111      1.7166      0.6529
O     17.1550     -6.8419      2.3510
C     -3.5930      6.3217      0.1948
H     18.6443     -3.1942      5.4776
C     10.3922     -8.1710      2.8418
C     -3.1540      7.9982     -4.0724
H     -4.8023      3.3185     -5.5086
H      1.2855      1.3197      6.3246
H     -4.6361      3.0490     -2.1168
H     -4.0732      8.9770     -5.8923
C     -2.2926      9.7390      0.4232
H     -8.4367      6.6743     -4.4362
H     12.2350     -3.4143      2.1375
H     13.9690     -3.2975     -2.2553
H      3.0994      0.7999      0.0910
H     -1.8644      3.2315      1.2093
H      0.0989      3.5207     -3.7789
C     14.9459     -5.4393      2.4373
H      3.1931      2.4668     -0.0221
C     13.8689     -3.6155     -1.2037
H     -5.4400      5.4259     -1.6680
C     -1.6865     10.0066     -1.0870
C      4.4238      8.5896      4.2122
C      8.1292      7.5963      3.0253
C     20.7040     -3.3498      1.2333
C     18.9787     -4.9229      1.8826
C      4.2085      6.2166      6.4693
C      2.0353      4.9430      2.6964
C     -7.2018      5.7827     -0.0894
C      5.9497      7.9796      4.3955
C     -4.9706      6.4492      0.3538
C      4.3829      4.9432      7.3948
C      1.9307      5.1423      1.1653
H     -3.0819      7.2914     -5.9018
C      6.3697      7.4073      5.7165
H      1.9060      1.9534      4.2765
H     -2.3304     14.5378      0.0385
H      9.6393     -7.5624      2.1025
C     -5.9065      5.7860      0.9588
H     -0.9280      3.9346     -9.0562
O      7.4872      6.9785      5.8051
H     -4.0078      9.0932     -1.7507
H     21.2158     -2.6932      0.5243
H      0.4865      3.1719     -9.2288
H      1.7664      3.4691     -0.8480
H      4.8489      5.9278      4.3092
C     -0.2699      7.4670     -1.4294
H     -6.4801      5.5231     -6.0062
C     15.8283     -6.5014      2.9710
C     11.0647     -8.2328      5.4077
C     13.3236     -6.0125      5.4055
H      3.5586      1.5408      4.6049
C      1.4421      5.8683     -8.2170
H      2.1947     -0.5389      1.5248
H     13.0711     -1.7982      2.5650
H     -2.5994      7.8252     -3.0383
C     -5.0468      6.8656     -4.7876
C      4.0674      0.5790      8.1274
C      6.5983      7.5732      3.1219
C     10.0790     -2.5175      5.5253
C     -0.1187      6.2110     -9.9451
C     11.6045     -6.4748      3.7612
H      9.9380     -0.5414      8.2970
H      2.5434      3.3305      0.4296
H     -6.8210      4.4417     -1.5191
H     10.5151    -10.3801      5.3417
C      2.2307      0.9743      9.2672
H     11.4929     -1.4982      6.9559
C      0.9035      5.1898     -9.4450
C      5.0888      3.5510      2.4942
H      1.2689      4.3489     -5.4606
H     17.8853     -4.4519      7.5763
C     -5.8733      3.6709     -3.7994
H     -2.8902     11.0475      1.6823
H     -5.6585     10.9042     -6.4100
C      1.8360      7.0652     -4.2322
C     11.2957     -7.2547      6.4513
C      2.5854      0.0146      2.4706
C      1.4040      4.8603     -7.1457
C      1.8570      6.4858     -5.5993
C      1.7257      3.9873      0.1971
H     -1.1466      5.4031      1.4003
H      4.0209      1.6459      2.6790
H     -3.8411      9.0665     -3.8245
H      4.3588      1.9636      0.5502
H     -4.1070      6.5856     -5.4781
H     -5.9613      1.8735     -5.4448
H     10.3522     -1.8792      4.7061
C     -3.7510     12.4568     -0.2219
H      5.2626      1.2499      3.2352
C      0.0778      9.1605     -7.7165
C     -4.0832      7.1117     -3.7403
H     -8.2178      5.5599     -1.8821
H      9.6675     -3.2192      3.1983
C      8.3723     -2.0195      8.0984
H      9.8796     -9.2942      2.9272
H      9.1277     -2.1277      5.6719
C     -0.0564      8.0531     -5.3991
C      0.3298      4.1453     -7.4596
O      8.5924      5.6095      4.3402
C     -1.3978      8.2309     -7.2971
C      5.8712      0.7304      6.7392
C      5.0289      1.7103      6.3134
C      2.2161      0.9789      5.9987
H      7.1085      1.2248      6.4409
H      5.1123      3.1359      8.8931
H      8.3259     -0.8576      9.8276
H      0.3130     10.6551     -6.4789
H     16.9187     -0.1193      4.9185
H      0.4004      8.3452     -4.3629
C      2.0084      5.0899     -5.7987
H      0.2426      3.9041      2.2160
C      3.8790      5.5021      5.0798
C      4.0096      2.8068      9.0238
H     20.3054     -2.4023      1.4384
H      0.4046      6.0583     -0.1776
C     -4.8656      7.1965     -2.6598
H      2.8408      3.2286     10.7013
H     -1.7899      6.3111     -0.3862
C      4.2766      3.0102      4.6666
C     17.5866     -3.2764      5.2341
C      6.3144     -0.8547      9.0083
C     -5.2064      8.9694     -5.9744
C     -7.0009      4.7725     -5.4786
C      5.6345      0.5035      8.2104
H     -0.5627      4.4752     -5.3216
H     -3.1336     10.1443      0.0541
H     -3.0671      5.3303      0.1645
C     14.5712     -2.9299      1.3242
H      3.8751      4.5501     10.3607
H     11.3146     -3.4232      3.6199
