286

C      6.9755      8.7181      0.4568
N     -1.9565     10.4756      1.2961
C      4.0783      1.5556      6.8554
C      2.2606      2.4067      2.3670
H      1.4397      0.9679      9.5302
C      7.5816      5.2325      2.4863
H     -3.1396      6.7585      2.8808
C      7.6768      3.8186      2.7833
C      3.6625      4.1002      5.4332
C      3.3164      7.3315      6.4830
C      6.5464      2.0121      4.0161
C     -6.9174      8.4096      8.7380
C      0.7628      8.6792      0.9130
C     -2.5815     12.2919     -0.5759
C     -4.3468     13.5286      0.6844
N      0.7611      2.7334      6.0616
C      0.5759      6.2925      0.6493
O     -1.3925      2.5641      1.4926
C      3.2442      4.2556      6.9004
H      0.3726      7.0658     -2.1237
H     -5.3903     13.4544      0.3860
C      2.4586      6.1603      4.4077
C      3.7394     10.5374      3.4611
H     -2.4413      3.4099      6.8385
C      4.0080      9.1202      3.0962
H     -8.2749      6.8670      9.8784
H      1.7847      4.2267      9.7804
H     -1.4573      5.1064      7.2542
H      5.7962      1.7930      8.6278
C      3.1144      2.8468      7.6250
H     -1.9244     11.3520     -2.4657
H      7.6055      2.7551      4.3991
O      1.1584     10.0420      2.7843
C     -5.1883     12.5750      8.7553
H      6.3721     10.8709     -0.5025
C     -2.5644     11.1175     -1.6790
C     -6.7910      6.0282      9.4445
H      3.1557     -0.2573      6.2577
H     -9.2293      5.3846      8.3850
C      6.4245      3.0296      2.8353
H     -7.4177      3.2511      7.5484
H     -8.7440     12.3861      9.1420
H      2.3937      7.9420      9.1261
C      4.5453     11.0464      4.4892
C     -2.6651      8.8395      5.2295
O      2.0498      8.5908      4.5181
C     -1.3523      8.5527      7.1899
C     -4.2225      7.6982     11.7635
C      7.3785      7.4523     -0.2787
C     -6.6366      6.8081     12.0038
H      4.6502      3.6491      1.4388
H      4.4846      9.9572      1.1819
H      1.8878     -1.8971      4.3791
H     -5.2721      6.0399      8.4218
C     -5.2743      2.5705      8.4549
H      0.8789      1.2301      2.2388
C     -6.1686      6.2288     10.7799
C      8.2175      6.1169      3.4351
H      8.4966      7.3361      2.0770
C     -1.1657      6.8307      5.4540
H      3.2413      8.4695      8.0210
H      3.6540     11.2143      2.6592
H     -7.5282      6.8477     13.5856
H      2.2205      5.7327      0.2673
C     -3.3674     11.8151      7.6565
C     -6.7177      4.6442      8.9047
C      3.0010      7.6448      4.8886
C     -3.8859     14.7100      0.8999
C     -8.0490      4.8086     12.3133
C      4.7829      9.1310      1.8436
H     -3.7432      8.5061      5.7054
H      8.6079      7.9223      3.5274
H      3.4848      1.1189     10.4538
H     -7.3331      9.3810      8.9991
H      5.7743     12.7848      4.5289
C     -0.6740      2.9732      8.1069
H      8.7270      8.9753      1.9724
C      0.5391      8.8006     -0.5643
C      1.8543      2.2376      7.9087
H     -2.2681      6.7914     -2.2611
H     -1.6345      9.1690     -1.7996
C     -0.6685      6.2603      1.5947
H     -7.4094      7.3719     11.6056
H     -1.5434      2.3550      6.0739
H      4.7974      9.9267     -0.5540
C     -2.8403      7.2321     -0.3367
O      2.7118      9.7640      1.0912
C     -5.7770      8.1783      8.0055
C      3.9529      8.5346      7.1977
C      3.3774      1.3485      9.2347
C      2.6221      1.2208      4.7147
H     -4.6501     11.7319     -0.5975
H     -2.0210     11.1679      0.5196
H      6.1601     -0.1544      6.1491
H      2.4720      6.2247      9.3362
C      4.1977      3.6132      3.2515
C     -2.0801      8.0932      0.5380
C     -1.5949      6.8871     -1.3985
H     -4.5692      1.9341      8.9850
C      5.2748      2.1826      4.9677
H    -11.5706     11.9774      9.2740
H      4.4698     12.6561      3.6079
C    -10.9413     12.4122      8.4598
C     -8.4098     11.0907      7.4638
C     -2.4747      5.2562      3.9487
C      3.9141      9.8938      6.6612
C      2.5451      3.6597      2.7253
C     -7.7430      7.1420      9.0831
H    -11.4598     12.1383      7.5667
H      2.3336      7.3944      0.4188
H     -1.7844     12.9387     -0.3328
H     -0.0591      3.4724      0.2259
O      5.9055      6.6251      6.4187
C      0.7617      7.9924      4.4532
H     -8.2093     11.5627      6.5910
C     -2.4691      8.8202      3.7641
C     -2.3001      7.4500      3.0732
H     -4.2034     10.7838      9.2126
H      8.2183      3.5375      3.5740
C     -2.4488      8.3102      8.0269
H     -4.9981     15.0928      1.0582
H      2.8707      3.7465      4.7555
H     -0.7380     10.3422     -1.0036
H     -9.2043      4.3357     13.7953
C      3.0682      1.2747      2.0684
C     -0.2860      8.5016      2.0783
O     -9.2538      4.6389     12.7127
O     -5.2292      3.6510     10.6471
C     -0.2523      3.0497      1.9574
C      0.2882      3.7585      4.1864
C     -5.7421     10.6608      7.7130
H     -3.4024     10.5332     -2.1888
H      2.7429     10.2658      6.2622
H     -0.3561     10.2205      4.8777
H     -0.5188      8.3424     -2.3085
O      0.8176     10.1107      6.2305
C     -7.1012     11.0528      8.4118
C      0.8067      7.4446      6.8136
C      1.4494      7.4030      1.0067
C      0.4053      7.7031      3.0313
H     -4.8487     13.5551      8.3517
C      2.2792      0.1001      3.9637
C      0.4362      2.8082      7.4260
C     -2.7075     11.3779      6.5610
C     -2.1033      3.2441      5.8729
C      4.7559     12.3962      4.6203
C      2.9042      3.4503     10.0480
C      0.8780      2.2282      1.7972
C     -1.4788      7.7872      1.8234
C     -9.3008     12.1545      8.1970
N      1.9648     -1.0007      4.7273
C      3.6806      1.7626      0.6096
O      3.7885      6.2216      1.9584
C     -3.2576      6.1001     13.3778
H      5.8113      9.4753      5.5806
C     -2.7675      3.9110      3.0231
C     -3.0930      8.3854      9.4293
H     -4.9157      3.1389      7.5610
H     -4.4655      3.2262     10.1351
H     -4.6704      9.0538      6.4578
C     -2.2766      9.5324      0.2985
H     -8.3083      7.0452      8.1891
H      0.9644      6.7984      9.1123
H     -0.7105      9.4740      2.1731
H      1.1006      9.5170     -2.1924
H      2.7276      1.8288      0.1008
H     -1.8019      3.5780      2.6148
H     -0.8945      3.2873      9.1398
C      1.7500      7.5007      2.4672
H      3.9254      2.6172      1.2030
C      1.6034      9.3017     -1.3308
C      6.0211      9.8846     -0.6438
H     -5.6531      5.2461     11.2249
C     -1.8857      9.9975     -1.0661
H      1.1444     -0.8163      5.2089
C      4.2741      8.4968      4.4019
C      7.7983      7.4441      2.8451
C      8.0938      9.5643      1.2364
C      5.8261      8.3618      1.7205
C      4.5409      6.1559      6.3994
C      1.9642      4.9636      2.3751
C     -6.9920      5.9534     13.2318
C      5.7229      7.8357      4.1780
C     -4.6452      6.2625     13.4595
H      2.0876     10.1256     -1.1257
C     -8.5087      5.0151      7.4608
C      1.4798      5.1712      0.8218
H     -3.3394      7.7639      7.3559
C      6.3859      7.4214      5.3727
H      1.8859      1.8048      4.4746
H     -2.9009     15.0235      0.5899
H     -3.2977      4.1157      2.1405
C     -5.8305      5.4421     14.0496
H     -0.9233      3.5888      4.3604
O      7.7240      7.2931      5.5309
H     -3.6631      8.6417     11.6043
H      8.7292      9.3665      0.3104
H      0.6987      2.7308      4.0556
H      0.9689      4.6259     -1.1175
H      4.4736      5.4893      4.0669
C     -0.3072      7.6880     -1.6554
H     -6.4804      4.1349      6.7381
C      2.5310      6.2906      2.7080
C     -2.0886      4.6811      5.3216
C      0.3847      7.0348      5.4112
H      3.5472      1.5983      4.1204
C      1.2033      5.8178      4.7991
H      2.2610     -0.7838      1.9288
H      0.3253     10.4891      3.3558
H     -2.1173      8.2557      9.9176
C     -4.7126      6.9941      8.3761
C      4.1785      0.6283      7.9868
C      6.2045      7.6534      2.8144
C     -3.2946     10.3908      5.4673
C     -0.2684      6.2487      2.9735
C     -1.5615      6.3445      3.8724
H     -2.3231     12.3821      8.1306
H      1.8152      3.0468     -0.3250
H     -7.4089      4.0236     12.2623
H     -2.8074      2.5366      5.2881
C      2.1147      0.9824      8.6673
H     -1.6489     11.3135      6.6513
C      0.6473      5.1392      3.5966
C      5.2318      3.9179      2.3720
H      1.3199      4.9701      8.1876
H      4.9265      8.7246      7.6165
C     -5.9141      3.4603      9.3691
H     -2.4157     10.3194      2.3444
H     -5.8024     11.0281      6.8039
C      1.9404      6.8331      8.8149
C     -1.7849      5.7085      6.3448
C      2.2014      0.1216      2.6468
C      1.0942      5.0037      6.1319
C      2.0764      6.8578      7.2020
C      1.1185      3.8810     -0.0849
H     -1.5920      5.9104      1.2837
H      4.0461      1.6352      2.4221
H     -3.8275      9.1892      9.8646
H      4.5191      1.2848     -0.0336
H     -4.8946      6.8401      7.1324
H     -6.0710      2.0950      7.7737
H     -3.3946     11.1715      4.8619
C     -3.7984     12.4695     -0.0481
H      6.9135      1.0875      3.7249
C     -0.0436      9.2153      5.3071
C     -3.8975      7.1340      9.4954
H     -8.0857      5.1603     11.2910
H     -3.1642      9.5189      3.1997
C     -4.4857     11.3142      8.3156
H     -2.9112      2.8183      3.4794
H     -4.3097     10.5793      5.9271
C      0.0893      8.3392      7.5995
C      0.7793      3.8898      5.4813
O     -3.6915      6.0070      4.2185
C     -1.3992      8.4819      5.8163
C      6.2262      0.7556      6.7887
C      5.4074      1.7592      6.2732
C      2.8947      0.8935      6.0200
H      7.2689      0.8365      6.8050
H      4.7144      2.8413      8.5891
H     -4.9328     12.5870      9.8190
H      1.0600      9.9555      7.1567
H      4.5651     13.0236      5.4512
H      0.7425      8.5310      8.4782
C      1.9096      5.2985      7.2491
H     -0.4493      3.8798      2.5468
C      3.7321      5.4927      4.9826
C      3.6825      2.6999      9.0405
H      7.9892     10.5362      1.5588
H      0.1860      6.2452     -0.2220
C     -4.7462      6.9566     10.5978
H      2.7786      2.6527     10.9363
H     -1.3571      5.9823     -1.0945
C      4.6124      3.3822      4.6967
C      4.7952      9.7827      5.3345
C     -6.5933     12.4060      9.0643
C     -5.2535      9.3184      7.3597
C     -7.3368      4.3204      7.5340
C      5.7302      0.6681      8.2338
H     -1.6409      2.9604      7.5905
H     -3.3786      9.4476      0.0875
H     -6.5807     12.0509     10.2531
H     -3.0586      5.1652     13.7594
C      1.6239      9.8047      1.4690
H      3.7672      3.9854     10.6521
H     -1.7035      9.7219      3.5599
