290

C      7.0882      8.9681     13.6600
N     10.8407     -2.4456      1.3513
C      3.7072      1.3322      7.2077
C      1.8582      2.2803      3.1033
H      1.2214      0.8196      8.9915
C      7.3578      5.0530      2.5321
H      9.5151     -5.5723      2.9953
C      7.1431      3.5865      2.5888
C      3.5494      4.2595      5.7792
C      5.8113     10.7050     12.2753
C      3.1758      7.4457     19.3820
C      6.1350      2.0903      4.1580
C      6.2895     -3.1727      8.8422
C      0.9026      8.6154     13.6533
C      9.2648     -0.9281     -0.7794
C      8.3288      0.7968      1.0081
N      0.6717      2.4005      6.1579
C     13.9205     -6.7371      0.6894
O     -1.2028      2.6446      1.0606
C      3.2854      4.3319      7.3909
H     -0.1050      7.3266     10.7006
H      7.7985      0.7881      2.0294
C      2.7859      6.3859     17.2887
C      4.0042     10.3416     16.0987
H     -1.5982      2.5948      6.2241
H      4.2619      5.4987      1.5031
C      4.0991      8.8666     15.9857
H      4.3659      7.0020     -3.5540
H      6.1913     10.8759     11.2495
H      3.7007      6.0709     -4.1631
H     -0.5859      4.8747      6.4806
H      5.6464      1.4920      9.4512
C      3.0793      3.2400      8.1472
H      9.9323     -1.6719     -2.7768
H      7.0607      2.0305      4.8755
O      1.5812     10.1969     15.5749
C      7.7692     -0.7156      9.0084
C      9.6057     -2.1652     -1.8114
C      6.1758      6.1432     -3.2117
H      1.9710     -0.1987      8.2460
H      2.4143      5.9649      9.6090
C      6.0217      3.3103      3.3272
H      5.2259      3.7296     -4.8636
H      4.3378     -1.2893      9.5052
H      2.6274      7.5861      9.6723
C      4.7121     10.7895     17.3837
C     10.0635     -4.1885      5.0721
O     15.0688     -4.2393      4.7079
C     -1.6634      8.3335      6.8572
C     -4.2556      8.0045     11.9731
C      7.6324      7.5904     12.9825
C      6.5099      6.7456     -0.8095
H      5.3776      5.0712      2.2418
H      5.0656      9.6393     14.2020
H      1.1462     -1.9728      3.9225
H      7.5076     -5.9736      9.4514
H      2.7160     10.6387     12.5327
C      8.0947      2.8085     -3.9908
H      0.4609      1.2774      1.9406
C      7.0331      6.1608     -2.0510
C      8.1931      5.8352      3.5097
H      8.6289      7.0611      2.0306
C     -1.0356      6.9228      5.0477
H      3.5795      8.3646     21.4350
H      4.0014     11.0663     15.3970
H      4.0645      6.8113     15.8622
H      4.2021      4.6811     10.1471
H     15.8567     -7.9236      0.7574
C      9.6784     -1.4164      7.7821
C      6.3735      4.9415     -3.8774
C      3.0440      7.6421     17.9254
C      9.5307      1.2348      0.9993
C      5.3268      4.6438     -0.4155
C      4.7521      8.7283     14.6896
H      9.1931     -5.0541      5.3543
H      8.6898      8.0187      3.5711
H      3.8190      0.7778     10.1707
H      6.9278     -2.9852      9.9220
H      5.8838     12.7044     18.0969
C     -0.4537      3.4493      8.0403
H      8.7804      9.1924     15.0112
C      0.2284      8.9788     12.1343
C      1.9167      2.6954      8.4508
H     -1.8436      6.5367     10.8775
H     11.1697     -3.1652     -1.9053
C     12.5932     -6.6732      1.5510
H      5.8746      7.6647     -1.1696
H     -1.3771      2.3972      4.6480
H      7.5258      7.0273      6.9003
C     -2.8058      7.4612     12.7203
O      2.7465     10.2962     13.5677
C      7.1762     -4.1564      8.0228
C      3.8752      8.5388     20.3442
C      3.4729      1.3655      9.5350
C      3.0991      0.5063      4.9433
H      8.0431     10.5266     15.2192
H     10.1526     -2.4307      2.0634
H      7.1514      0.9496      7.0680
H     -2.5245      5.7177      5.9502
H      4.6171      6.3851     -2.1364
C      3.8269      3.6243      3.4157
C     10.8629     -4.5295      0.6342
C     -1.5633      6.8681     11.8556
C      5.1376      2.3188      5.1041
H      1.8520     -2.0672      9.0964
H      5.0341     12.7411     16.5083
C      2.3731     -1.3712      8.3611
C      4.5573     -1.6250      7.3952
C     -2.2087      4.9965      3.4694
C      3.8452     10.1621     19.6296
C      2.4770      3.5603      2.9020
C      5.1312      7.0711     -2.9041
H      2.1139     -1.7230      7.4663
H      2.6977      7.2424     13.2237
H      8.7815      6.2639      5.4798
H     10.0589     -0.1379     -0.8373
H     15.6080     -9.4694     -0.3098
O      5.4515      6.8576      6.4277
C     13.8260     -4.9027      4.4856
H      4.6786     -0.9329      6.5046
C     10.2722     -4.0473      3.4494
C     10.7175     -5.3270      2.7448
H      8.4374     -2.5303      8.6845
H      8.1382      2.8545      2.5677
C     -2.6059      8.3546      7.7049
H      9.4855      2.2890      1.6755
H      1.8440      1.8224      4.1569
H     11.1294     -1.5883     -0.7681
H      3.5103      4.8386     -1.1621
C      2.6596      0.9380      2.1747
C     12.9644     -4.3384      1.9308
O      4.0745      5.0928     -0.5612
O      7.3149      3.9278     -1.9241
C     -0.2396      3.0949      1.7917
C     -0.0778      3.8971      4.2287
C      7.1022     -1.8950      6.8947
H      8.4580     -2.7304     -2.1411
H      2.6401     10.4083     19.3950
H     12.1445     -3.3265      4.3172
H     -1.3769      8.2277     10.5946
O     12.7859     -2.9049      5.8027
C      6.0200     -1.9205      8.0529
C      0.7790      7.4576      6.8046
C      1.7958      7.4572     13.9606
H      2.5812      8.4624     15.6572
C     13.7162     -5.1575      3.0122
H      7.9800      0.1753      8.4673
C      2.3704     -0.4805      4.0671
C      0.7141      2.9538      7.4241
C     10.3872     -2.0399      6.7848
C     -2.0019      3.0127      5.1501
C      5.3474     12.0638     17.3093
C      3.5437      3.9444     10.2609
C      0.6022      2.2209      2.3657
C     11.7346     -5.2632      1.6432
C      3.7277     -0.8832      8.4494
N      1.6078     -1.4457      4.6505
C      2.6295      1.3075      0.7098
O      4.9156      6.1255      1.2749
C      9.6103      6.4147      0.6637
H      5.5087     10.2248     18.8339
C     -2.6123      4.3662      2.4024
C     -2.9341      7.6270      8.8204
H      8.0425      3.2242     -5.0026
H      2.0343      0.3201      6.9717
H      7.3405     -3.9693      5.8859
C     10.6793     -3.1959      0.2955
H      5.4786      7.9191     -2.2187
H      1.1728      6.8829      9.1365
H     12.5638     -3.1581      1.7502
H      1.3678      9.0989     10.1479
H      3.5789      1.3263      0.5284
H     -0.9766      2.9181     -0.0125
H     -0.2927      4.1167      8.9457
C      2.0927      7.3756     15.3488
C      1.4426      9.1025     11.2476
C      6.7442      9.7351     12.5686
H      7.8904      5.5875     -1.9325
C     10.7646     -2.6036     -0.9751
H      0.8272     -1.0300      5.2947
C      4.3366      8.2755      4.3347
C      7.9895      7.2786      3.0640
C      8.1934      9.7276     14.3564
C      6.2850      8.6237     14.8606
C      4.0935      6.3055      6.4891
C      1.8801      4.8248      2.4927
C      6.0420      5.7557      0.2918
C      5.7915      7.2705      4.1172
C      8.2900      6.4572      0.7719
H      2.4237      9.1276     11.7870
C      4.1580      5.5162     -5.1058
C     14.7997     -7.9122      1.0467
H     -3.5625      8.5887      6.9867
C      6.3170      7.1244      5.4503
H      1.4738      1.7850      5.8210
H     10.4172      0.9134      0.5874
H     -3.7424      4.6416      1.8072
C      7.2918      5.5860      1.1858
H     -0.1621      3.2697      3.4927
O      7.7057      7.0887      5.9435
H     -5.7404      8.2323     10.5530
H      9.1135      9.6674     13.5088
H     13.7598     -9.7573      0.0797
H      4.9356      5.3611      4.5211
C     -0.5622      7.8042     11.5227
H      5.7966      4.3451     -6.1649
C      2.9413      6.3077     15.7435
C     -1.4268      4.4964      4.6107
C      0.5314      6.9613      5.3034
H      5.7439     -4.0969      9.2282
H      3.0843      2.5813      5.3075
C      1.3205      5.7979      4.8562
H      1.8141     -1.0952      1.9348
H      1.8110      9.5699     16.2984
H     -3.7813      6.9693      8.2416
C      7.3103     -5.4775      8.3006
C      4.1245      0.4909      8.3280
C      6.6506      7.7529      2.9378
C      9.7838     -2.7663      5.6170
C     12.6990     -6.5706      3.0138
C     -1.7381      6.5031      3.6321
H     10.3173     -0.6673      8.4878
H     14.3342     -8.2091     -0.7926
H      4.4346      7.9856     13.6652
H     -3.0160      2.9064      5.5345
C      2.0368      1.5161      9.1762
H     11.2774     -1.4561      6.8578
C      0.6531      5.1231      3.5436
C      5.0017      4.0811      2.8261
H      0.7628      4.6441      7.3841
H      4.9508      8.4160     20.3261
C      7.0621      3.7899     -3.1693
H     10.6564     -1.5617      1.0647
H      7.5430     -1.2159      6.2889
C      2.2543      6.6954      8.7871
C     -1.4952      5.4457      5.6661
C      2.1602     -0.2073      2.7683
C      1.7251      4.5807      5.6803
C      2.0747      6.7049      7.2780
C     14.6620     -8.9381     -0.0009
H     12.0968     -7.6154      1.0459
H      3.7841      0.8140      2.5364
H     -2.9916      9.0404     10.1998
H      2.1911      2.2908      0.7761
H      8.3894     -5.7104      8.1128
H      7.8701      1.6026     -4.2012
H     10.2397     -2.0782      4.8044
C      8.2474     -0.5936      0.0332
H      5.9598      1.1943      3.4511
C     12.6799     -3.9411      4.8239
C     -3.4880      8.1994      9.8585
H      6.1034      4.7093     -1.2440
H      9.2157     -3.2606      3.3441
C      8.3023     -1.7235      8.1764
H     -2.8140      3.3570      2.4476
H      8.5754     -2.4952      5.5553
C     -0.5166      7.8513      7.4327
C      0.9140      3.5203      5.2488
O      8.8278      5.4822      4.6672
C     11.4138     -4.6679      5.4743
C      6.1736      1.2609      7.1979
C      5.0518      1.8880      6.5246
C      2.8342      0.6007      6.3664
H      6.0974      2.4488      7.7043
H      5.1641      2.9014      9.4080
H      7.6708     -1.2721      9.9532
H     12.6675     -3.6011      6.5057
H      3.8509      1.1549      4.4705
H     -0.3093      7.7746      8.5045
C      1.9531      4.8819      6.9729
H     -0.3789      4.0898      2.2806
C      3.9771      5.4875      5.3236
C      4.0578      2.8829      9.4161
H      7.2147     -0.7685     -0.3927
H     13.4563     -6.9879     -0.2079
C     -4.5545      7.8249     10.6462
H      2.8647      3.8519     11.1050
H     -1.3319      5.9826     12.4524
C      3.9786      3.1070      4.8598
C      4.6955      9.8185     18.2732
C      6.3375     -0.7191      8.9785
C      7.3597     -3.5262      6.8654
C      5.6504      4.6829     -5.0523
C      5.6480      0.6526      8.5669
H     -1.3612      3.1945      7.4584
H      7.7973     10.2740     11.8540
H      5.6392     -1.1774      9.6832
C      1.6107      9.7798     14.2084
H      2.5014      4.2325      9.4420
H     10.8097     -2.9755      3.4758
