288

C      7.0026      9.0386      0.7449
N     -2.3692     10.5513      1.0657
C      3.7304      1.3906      7.2999
C      2.0422      2.4909      2.5347
H      1.1767      1.9209      9.8929
C      7.2907      5.2665      2.5949
H     -3.0360      6.9712      2.7404
C      7.4626      3.7842      2.9094
C      3.3777      4.3419      5.5381
C      6.2570     10.6714     -1.1483
C      3.2727      7.3540      6.5999
C      6.2023      2.0867      4.0326
C     -7.0616      9.1077      8.7702
C      0.6850      8.7907      0.9331
C     -3.3721     11.7311     -0.7181
C     -4.3871     13.6275      1.1646
N      0.4398      2.8509      6.1364
C      0.7037      6.1444      0.6104
O     -1.3600      2.2362      1.2242
C      3.3532      4.1805      6.9647
H      0.3836      6.9100     -2.0937
H     -5.3813     13.8621      1.5682
C      2.7024      6.2672      4.6329
C      4.2809     10.6954      2.9729
H     -1.5299      2.7396      5.5558
H     -6.7496      5.7170     14.7597
C      3.8796      9.1573      2.8912
H     -8.6609      7.0204      9.0139
H      2.8454      4.5961      9.2127
H     -0.6035      5.7159      6.7962
H      5.6315      0.9024      9.6927
C      3.3546      2.8127      7.6604
H     -2.8017     10.9627     -2.4498
H      7.2752      2.0373      4.3573
O      1.6256     10.9805      2.0210
C     -5.2477     12.2555      8.9885
C     -3.4535     10.5598     -1.5858
C     -6.7790      5.9818      9.8076
H    -11.1993     12.4345      8.2726
H     -9.5995      5.6930      8.3188
C      6.2888      3.1519      2.9986
H     -7.0728      3.7420      7.2287
H      5.5428     10.6801     -1.9618
H     -8.8708     11.5972      9.3187
H      1.5805      7.7412      9.1596
C      4.3105     10.9803      4.5814
C     -2.7246      8.9412      4.9898
O      1.9237      8.6598      4.6728
C     -1.4288      8.1482      6.9779
C     -4.5012      8.0349     12.2156
C      7.5192      7.3919      0.1547
C     -6.5535      6.7350     12.3379
H      4.7981      4.5346      1.6966
H      4.0966      8.5792      0.7736
H      1.1030     -1.8716      4.2944
H     -6.7358      6.2731      8.1034
C     -5.1806      2.4839      8.9759
H      0.2325      0.9239      1.4354
C     -5.7989      6.4804     11.0487
C      8.4551      6.0473      2.9345
H      8.7689      8.0898      2.1280
C     -0.9334      6.8087      5.2470
H      2.9601      8.2918      8.4160
H      5.0068     11.1487      2.4538
H      3.5325      6.5100      2.4107
H      2.8268      5.3026      1.1633
C     -3.0857     11.3503      7.7815
C     -6.5691      4.7644      9.3120
C      2.9024      7.6338      5.0623
C     -3.4202     14.5717      1.0017
C     -7.4455      4.2365     12.4814
C      4.6259      8.5536      1.7248
H     -3.2861      8.3994      5.7427
H      8.4754      8.1226      3.6582
H      4.1900      1.6878     10.3895
H     -6.3746      9.2848      9.5200
H      6.2358     12.4601      4.6411
C     -0.3144      3.3874      8.0587
H      8.4492     10.6495      0.6515
C      0.3424      8.7721     -0.6862
C      1.9483      2.4482      8.1103
H     -2.1027      6.9143     -2.1319
H     -1.6839      8.8557     -1.6349
C     -0.6661      6.2029      1.4013
H     -7.3206      7.4677     12.0861
H     -2.6513      3.1054      4.2942
H      7.3202      7.0423      6.5805
C     -2.6388      7.2358     -0.3816
O      2.9724      9.8877      0.5840
C     -6.1603      8.4254      7.8069
C      3.6115      8.5942      7.4678
C      3.6829      1.6965      9.4407
C      2.7160      0.7504      5.0786
H      8.8076      9.4029      1.4355
H     -2.0440     11.2825      0.5048
H      6.9302      0.6277      7.0807
H     -2.2821      5.6533      6.4598
H     -8.8871      5.7626     10.1126
C      4.1223      3.3570      3.3872
C     -2.7868      8.1571      0.7126
C     -1.5456      7.0260     -1.2855
H     -4.2161      2.0409      9.7047
C      5.1455      2.3053      5.3103
H    -10.8712     11.8039      9.6176
H      4.7646     13.0149      3.6097
C    -10.5758     11.8369      8.6015
C     -8.2715     11.1560      7.4275
C     -1.9582      5.2484      3.3444
C      4.0169      9.8973      6.7947
C      2.5238      3.7346      3.0452
C     -8.2641      6.5574      9.9180
H    -10.7821     10.9893      8.1918
H      2.4940      7.5047      0.3538
H      9.3194      6.7320      4.4249
H     -2.3630     11.9994     -0.9238
H      2.3040      4.7360     -0.1003
O      5.4157      7.1461      6.1661
C      0.7045      8.1525      4.4212
H     -7.9976     11.7874      6.4281
C     -2.4245      9.0446      3.4683
C     -2.1592      7.6749      2.9942
H     -4.4963     10.0115      8.8142
H      7.9083      3.7422      3.7839
C     -2.6349      8.0988      7.7175
H     -3.3885     15.4113      1.9061
H     -9.0070      5.9346     12.6615
C      3.1998      1.2626      2.6096
C     -0.2555      8.7286      2.0802
O     -8.9324      4.8483     12.7020
O     -5.1665      3.8721     10.6760
C     -0.1827      2.7782      1.5691
C     -0.0651      4.1575      4.0231
C     -5.4033     10.6327      7.2344
H     -4.4437      9.8965     -1.2553
H      2.9793     10.1851      6.5414
H     -0.6834      9.8074      4.2301
H     -0.4542      8.0039     -2.5782
O      0.5600      9.8744      5.8893
C     -6.9852     10.8256      8.2625
C      0.8858      7.1751      6.7385
C      1.5384      7.4618      0.9811
C      0.4446      7.7314      2.9801
H     -4.9337     13.1249      8.2259
C      2.2914     -0.2644      4.1304
C      0.6546      2.6317      7.4700
C     -2.5670     10.8404      6.7253
C     -2.3255      3.5404      5.1990
C      5.0105     12.3938      4.7818
C      3.1420      3.7915      9.8414
C      0.7187      1.8311      1.9490
C     -1.3314      7.7609      1.5051
C     -9.1995     11.9906      8.2783
N      1.9210     -1.4751      4.6856
C      3.5765      1.3624      1.0480
O     -7.6833      5.7674     14.2250
C     -3.2013      6.0824     13.1727
H     -5.9508      9.1592      5.8510
C     -2.4823      4.3617      2.3662
C     -3.1375      7.5283      8.9899
H     -4.9456      2.4810      7.8713
H      1.9087     -0.1116      6.7522
H     -4.9757      8.3585      6.5118
C     -2.1930      9.4833      0.4734
H     -7.9270      7.1801     10.7666
H      1.2408      6.1161      9.0933
H     -0.5092      9.7519      2.0452
H      1.2815      8.5334     -2.2449
H      0.9322     11.4995      2.4272
H      4.4299      1.8734      0.8505
H     -2.0029      2.8991      0.6969
H     -0.0737      3.5686      9.1303
C      1.8752      7.5514      2.4398
H      3.9923      0.3207      0.9077
C      1.6566      9.0678     -1.3241
C      6.3236      9.6663     -0.2644
H     -5.1623      5.6526     11.5247
C     -2.0304      9.7550     -0.8977
H      1.8884     -1.4866      5.6133
C      4.4435      8.5500      4.3660
C      8.0019      7.6191      2.7938
C      7.9698      9.9065      1.4197
C      6.1339      8.5175      1.7303
C      4.3402      6.3590      6.4343
C      2.0394      5.0953      2.8334
C     -6.8076      5.4587     12.9844
C      5.7550      7.7579      3.9340
C     -4.5210      6.2512     13.4793
H      2.4008      9.9742     -1.1216
C     -8.6524      5.2220      7.5343
C      1.7555      5.0544      1.2209
H     -3.5983      8.1673      6.9621
C      6.1991      7.3615      5.1036
H     -0.2185      2.0743      5.6723
H     -3.5278     14.9724      0.0060
H     -3.4705      5.2514      2.4898
C     -5.5484      5.1221     14.0465
H     -0.1002      3.5506      3.3555
O      7.5279      7.2523      5.5819
H     -5.6740      8.6941     10.9520
H      7.6114     10.5346      2.1532
H      4.6147      5.6608      4.3116
C     -0.1960      7.7365     -1.5386
H     -6.6184      4.9787      7.3095
C      2.6131      6.3975      3.0020
C     -1.3447      4.5284      4.7178
C      0.5298      6.9949      5.3469
H     -8.1051      9.1715      9.2281
H      3.5276      1.4386      4.5568
C      1.2065      5.9111      4.8143
H      2.2447     -0.7859      2.2301
H      3.3467     11.5005      2.9800
H     -3.2545      6.4705      8.8078
C     -5.8514      7.0515      7.9939
C      4.0201      0.5563      8.5555
C      6.5824      7.9777      2.8037
C     -2.7977     10.3894      5.3267
C     -0.1841      6.3886      2.8037
C     -1.4542      6.5770      3.6535
H     -2.4583     12.0404      8.5755
H      0.8831      3.4452     -0.1938
H      4.5564      7.4379      1.4829
H     -7.1174      3.3487     13.1367
H     -3.2420      3.7679      5.9661
C      2.1841      1.9207      9.3360
H     -1.5189     11.1424      6.3555
C      0.6060      5.2847      3.5826
C      5.0029      3.5506      2.4285
H      1.0274      4.7248      7.8284
H      4.5031      8.1674      7.7462
C     -5.6301      3.6904      9.5152
H     -2.9217     10.7791      1.9216
H     -5.3870     11.0118      6.2133
C      2.0248      6.7348      8.9421
C     -1.4122      5.6300      5.9870
C      2.3045      0.0479      2.9669
C      1.3155      4.9426      5.8197
C      2.0580      6.8127      7.4105
C      1.7197      3.9840      0.4028
H     -1.3779      5.2681      1.4375
H      4.2068      1.4186      3.1271
H     -3.6749      9.3105     10.3364
H      2.4430      1.7131      0.8191
H     -4.9498      6.8515      7.6985
H     -6.0365      1.8940      9.3449
H     -2.1584     11.1398      4.7446
C     -4.4021     12.5371     -0.2496
H      6.0662      1.0435      3.7435
C     -0.3086      9.2545      5.0001
C     -3.8247      8.0723      9.9952
H     -3.5035      9.4293      3.0295
C     -4.4501     10.9194      8.2753
H     -3.3493      3.6098      3.0105
H     -3.8422     10.2839      5.3796
C     -0.0288      7.7883      7.5465
C      0.9709      3.6857      5.1240
O      8.9771      5.9053      4.2339
C     -1.4260      8.3624      5.6164
C      6.0102      1.3154      7.5555
C      5.0183      1.5450      6.4841
C      2.6835      0.7671      6.4636
H      6.6514      2.0083      7.3587
H      5.3122      3.0618      8.8765
H     -5.0508     12.8874      9.7376
H      0.0042     10.1843      6.6142
H      4.5641     13.3612      5.3005
H     -0.0408      7.4784      8.5292
C      1.9170      5.1524      7.1171
H      0.0825      3.8923      1.6758
C      3.7812      5.6379      5.2094
C      4.1611      2.9098      9.1326
H     -5.3545     12.3450     -0.0231
H      0.6442      5.9555     -0.5263
C     -4.9906      7.7198     10.9325
H      2.2794      3.4893     10.3408
H     -1.0509      6.0739     -1.1021
C      4.1022      3.1683      4.7841
C      4.3960      9.8266      5.3384
C     -6.7367     12.0523      9.0224
C     -5.5605      9.2673      6.7574
C     -7.2700      4.5846      7.9111
C      5.6020      0.5558      8.6379
H     -1.3636      3.6692      7.6407
H     -3.8615      8.7689     12.4707
H     -6.6276     11.8187     10.1695
H     -2.8963      5.0786     13.0246
C      1.9392      9.7616      1.2036
H      3.6227      4.3496     10.4674
H     -1.7263      9.8537      3.2078
