290

C      7.1491      8.9375     13.8066
N     10.7857     -2.4422      1.0869
C      3.9554      1.1363      7.0786
C      1.8017      2.4123      2.8633
H      1.5736      0.4703      9.0529
C      7.8830      5.3023      2.6815
H      9.9314     -5.9632      2.9550
C      7.8487      3.9167      2.8879
C      3.2819      4.1237      5.6683
C      6.4320     10.2356     11.5967
C      3.1982      7.4552     19.5686
C      6.3978      2.2339      4.3314
C      6.1331     -3.2456      8.6611
C      0.6682      8.4865     13.4518
C      9.2132     -1.0130     -0.4771
C      8.0419      0.6212      0.8873
N      0.7142      2.4020      6.1313
H      5.3451     10.0004     11.4710
C     13.6125     -6.7174      0.6150
O     -0.3419      2.3463      0.0093
C      3.3668      4.1250      7.2131
H      0.5691      6.7909     10.3205
H      7.0116      0.9801      1.2173
C      2.7788      6.3365     17.3784
C      3.6189     10.7210     16.6083
H     -1.5819      2.0642      5.2128
H      4.5375      6.6703      0.6896
C      4.3112      9.4652     16.0290
H      4.5746      6.8217     -4.0730
H      6.4856     10.9406     10.8085
H      3.9787      5.3628     -3.9178
H     -0.1638      5.4006      6.2231
C      3.1817      2.8111      7.9831
H     10.8512     -1.3905     -2.0368
H      7.1589      1.5915      4.7130
C      7.5407     -0.7712      9.0335
C      9.9605     -1.8439     -1.4365
C      6.1596      5.8229     -2.7636
H      1.5975      0.0494      7.7998
H      1.1747      5.9931      9.1547
C      6.7333      3.4974      3.6345
H      5.7169      3.5305     -4.7960
H      3.5723     -1.8303      9.3171
H      2.9812      6.1016      9.4087
C      4.6572     10.8614     17.6716
C     10.3698     -4.2065      5.0070
O     15.1997     -4.3168      4.6015
C     -1.1612      8.3751      7.1833
C     -3.8849      7.8608     11.7445
C      7.7668      7.5885     12.6892
C      6.4277      6.9169     -0.7976
H      4.9860      5.1468      3.2217
H      4.3675     10.1626     14.0776
H      1.6121     -2.1060      5.2799
H      7.4080     -5.0525      8.7274
C      7.7365      2.5309     -3.8646
H      0.7445      1.2774      1.8325
C      7.1121      6.1029     -1.8594
C      8.1242      6.2442      3.6206
C     -1.0413      6.8450      5.0880
H      3.3174      8.5454     21.3437
H      3.7293     11.5559     15.8958
H      3.9805      6.6077     15.5740
H      3.2700      4.5334      9.9678
H     15.5938     -7.0603      0.5506
C      9.4272     -1.3307      7.4305
C      6.7507      4.9627     -3.9083
C      3.1153      7.6400     18.0914
C      9.1029      1.4762      0.8183
C      5.3748      4.5052      0.1974
C      4.7736      9.2160     14.8003
H      9.7977     -5.1777      5.4026
H      8.5073      8.3889      3.9769
H      3.8014      0.7647     10.6250
H      6.8594     -3.3381      9.6796
H      5.8283     12.5009     18.0015
C     -0.2825      3.2293      7.8391
H      8.2177     10.3234     14.9053
C      0.5278      8.5309     11.9954
C      1.8924      2.2306      8.5063
H     -1.7221      6.1565     10.7190
H     11.8134     -3.6521     -1.3455
C     12.2279     -6.5701      1.4798
H      5.5560      7.5562     -1.0523
H     -2.2537      2.8951      3.9898
H      6.9609     -6.4368      7.4233
C     -2.5503      7.3724     12.1861
O      2.6164     10.1419     13.5797
C      6.4510     -4.2361      7.4870
C      3.8163      8.4519     20.2854
C      3.4353      1.2008      9.5502
C      3.2364      0.0951      5.2017
H     10.6152     -2.5680      2.0169
H      7.1974      1.2643      7.0549
H     -2.4257      5.4831      5.9453
H      3.9140      6.6091     -2.2012
C      3.8647      3.3992      3.3951
C     10.8509     -4.7190      0.3691
C     -1.5013      6.8350     11.4884
H      8.6249      2.4766     -3.0978
C      5.2296      2.3399      5.3882
H      1.5324     -1.2833      9.4448
H      5.3099     12.5701     16.2137
C      2.0556     -0.7508      8.2983
C      4.3922     -1.8149      7.3004
C     -2.0364      5.2936      3.5545
C      3.6909      9.7684     19.6086
C      2.6644      3.6329      2.6210
C      5.0134      6.7457     -2.9674
H      1.6740     -1.2446      7.2152
H      2.1901      7.5832     12.9447
H      9.5421      5.3908      4.5527
H     10.0069     -0.4126      0.2048
H     14.0130     -9.7037      0.2174
O      5.5905      6.4102      6.3181
C     13.6098     -4.7627      4.4500
H      4.3476     -1.1226      6.4490
C     10.4402     -3.7553      3.6478
C     10.6508     -5.2023      2.8494
H      7.7123     -2.5573      8.4173
H      8.6356      3.8615      3.6253
C     -2.4542      7.7777      7.6298
H      9.2238      2.3275      1.5090
H      1.6660      2.0953      3.9392
H     11.3212     -2.2090     -0.8387
H      5.3440      5.6176     -0.9831
C      2.7010      1.3038      2.0984
C     12.7328     -4.2748      1.8762
O      4.5367      5.2451     -0.6016
O      7.3532      3.8583     -1.7698
C      0.0048      2.8550      1.0754
C      0.0537      3.9632      4.1788
C      6.9849     -1.9450      6.8209
H      9.4559     -1.7615     -2.5118
H      2.4924      9.8983     19.0972
H     12.7463     -2.7651      4.4466
H     -0.8368      8.0466     10.2299
O     13.4232     -3.0798      6.1080
C      5.7423     -1.9322      7.9350
C      0.6557      7.1163      6.9916
C      1.4916      7.4197     13.7027
H      2.7911      8.4178     15.2122
C     13.5967     -5.2167      2.9340
H      7.8122      0.0833      8.4555
C      2.2970     -0.3624      4.1280
C      0.7272      2.3959      7.6068
C     10.0201     -2.2303      6.8909
C     -2.0635      3.0245      4.9446
C      5.3021     11.9479     17.1709
C      3.6517      3.7284     10.3254
C      0.6827      2.2494      2.0676
C     11.4619     -5.1361      1.6307
C      3.5116     -1.0681      8.4177
N      1.3880     -1.3079      4.7932
C      2.6019      1.0866      0.5417
O      5.0873      6.4210      1.3786
C      9.6915      6.4142      0.2751
H      5.5068      9.5659     19.0703
C     -2.4414      4.5660      2.3643
C     -2.8283      7.4774      9.0249
H      8.0311      2.7667     -4.9321
H      2.0390     -0.2301      6.6948
H      6.9134     -3.1059      5.3423
C     10.5481     -3.5027      0.2709
H      5.4193      7.8258     -2.8620
H      2.5421      7.4447      9.3313
H     12.5865     -3.1687      2.0557
H      1.5389      8.7096     10.0346
H      3.4018      1.1890     -0.3113
H     -0.2107      2.6965     -0.9097
H     -0.0647      3.7989      8.7903
C      1.9226      7.6071     15.2200
H      1.8663      0.2604      0.6054
C      1.4470      9.2523     11.1792
C      7.2593      9.5150     12.3629
H      8.1696      6.4690     -2.1839
C     10.7552     -3.0745     -1.1557
H      0.3049     -1.2516      4.6919
C      4.4090      8.6148      4.3877
C      7.8851      7.7358      3.3225
C      8.4854      9.4750     14.2778
C      6.2334      8.9079     15.0050
C      4.0324      6.2056      6.4699
C      2.0317      5.1141      2.4580
C      6.4086      5.7344      0.6067
C      5.7593      7.4730      4.1560
C      8.4049      6.6848      0.6339
H      2.0089     10.0171     11.9050
C      4.3552      4.9702     -5.0244
O      0.2302     10.9387     13.3741
C     14.7789     -7.6845      0.9378
H     -3.2151      8.3544      7.3097
C      6.4442      6.9333      5.4137
H      0.7525      1.3204      5.2933
H      9.6045      1.7288     -0.1171
H     -2.6281      4.9503      1.4716
C      7.5385      5.7582      1.4102
H     -0.0311      3.2686      3.3481
O      7.5045      7.3259      5.6523
H     -5.3270      8.9057     10.4438
H      9.3814      9.0743     14.8214
H     14.1823     -8.7474     -1.0749
H      4.8598      5.5870      4.4370
C     -0.1801      7.4675     11.1755
H      6.0771      5.0351     -6.1619
C      2.9397      6.4723     15.7395
C     -1.2518      4.4502      4.7569
C      0.5113      7.0066      5.3406
H      5.3170     -3.6460      9.1052
H      3.4468      1.8632      4.9946
C      1.3874      5.8615      4.8301
H      1.6206     -0.7524      2.0968
H     -2.4844      6.6775      9.5357
C      6.8433     -5.5230      7.9678
C      4.1680      0.3325      8.4899
C      6.4460      7.8867      3.0496
C      9.4851     -3.0769      5.8215
C     12.8413     -6.6006      2.9131
C     -1.2838      6.6263      3.5791
H     10.0005     -1.1490      8.3209
H     15.5524     -9.3431      0.1810
H      4.3624      8.1576     14.6069
H      4.8511      4.1414      1.1409
H     -2.9388      3.2211      5.4666
C      1.9109      1.4013      9.5154
H     10.9607     -1.7424      6.6050
C      0.8685      5.2332      3.4852
C      5.2761      4.0449      3.4149
H      0.9966      5.1196      7.9436
H      4.9185      8.0927     20.0965
C      7.2917      3.6140     -2.9726
H     11.3033     -1.7707      0.6219
H      6.6984     -1.3114      5.9992
C      2.2016      6.5837      8.9418
C     -1.2262      5.5004      5.7595
C      2.3431     -0.0906      2.7430
C      1.5485      4.6478      5.7428
C      1.9816      6.6979      7.4559
C     14.5570     -8.9275     -0.0443
H     11.5720     -7.4623      0.9120
H      3.6769      1.6272      2.3299
H     -4.2797      8.9103      8.6783
H      2.1106      2.0529      0.2535
H      6.1915     -5.5663      9.0193
H      7.4105      1.5084     -3.4657
H      8.6752     -2.3354      5.5699
C      7.9818     -0.4719     -0.0397
H      5.9956      1.7755      3.2025
C     12.7888     -3.7865      5.0756
C     -3.6360      8.5411      9.4296
H      5.8091      3.5593     -0.0391
H      9.3652     -3.3278      3.5552
C      8.0000     -1.6427      7.7547
H     -2.4085      3.5969      2.2993
H      8.7234     -3.7518      6.3028
C      0.0309      8.0048      7.8827
C      0.8871      3.4680      5.3036
O      8.9114      6.0310      4.6914
C     11.5537     -4.7155      5.6552
C      6.2257      1.2928      7.4866
C      5.2345      1.4254      6.4339
C      2.7975      0.4471      6.4058
H      5.8345      2.2568      7.9967
H      5.0775      2.6177      9.1802
H     13.0702     -3.6076      6.9863
H      4.2437     -0.0056      4.9202
H      0.2573      8.3302      8.9498
C      1.9138      4.9579      7.3591
H     -0.2413      3.9500      1.3718
C      3.7699      5.3720      5.0905
C      4.0084      2.6253      9.4709
H      7.0458     -0.9670      0.3036
H     13.1940     -6.9606     -0.3780
C     -4.3457      8.3158     10.5464
H      4.5965      4.0162     10.5836
H      7.7046      5.1070     -4.0793
H     -1.2446      6.3043     12.3490
C      3.9447      2.9718      4.7495
C      4.6196      9.7615     18.4415
C      6.0900     -1.0286      8.9432
C      7.0246     -3.3524      6.5503
C      5.7800      4.5814     -5.0507
C      5.6225      0.3532      8.6913
H     -1.1042      3.4917      7.0859
H      8.1452     10.0399     12.2157
H      5.6630     -1.2394      9.9285
H     10.4381      5.9846      0.8835
C      1.4271     10.0195     13.4989
H      2.9216      3.4470     11.1083
H     10.8867     -2.9448      3.1788
