282

C     -6.1694    -16.8803     13.7601
N     -2.1455     10.6976      1.2313
C      4.1349      1.6611      7.2685
C    -10.7403    -10.6083     15.2587
H      0.9399      1.3378     10.0894
C     -5.0626     -7.8498     15.5296
H     -2.9821     -6.8939     14.5805
C     -5.1233     -9.1028     15.9163
C      3.3917      4.1485      5.6958
C     -6.8601    -16.0652     11.3418
C      3.1071     -5.4783      6.7722
C      6.2532      2.2287      4.3045
C      6.3129     -3.5400      8.7976
C      0.7367      8.6470      0.7453
C     -4.1161     12.1328     -0.1437
C     -4.9081     14.0141      0.9831
N      0.6436      2.3716      6.3028
H     -6.8318    -17.1033     11.3670
C      0.8877      6.1916      0.7924
O    -13.7621     -9.7522     13.9897
C      3.3034      4.1299      7.4282
H      0.0648      7.4221     -2.4830
H     -5.0353     14.0811      2.1563
C      2.8155      6.3595      4.4634
C     -9.4505    -15.2160     16.2617
H     -2.0204      2.8022      6.2085
H      5.9673      6.7864     14.5120
C     -9.2018    -16.5994     16.0279
H      5.3729      6.8240      8.5978
H     -6.6791    -15.3051     10.7175
H      5.9274      3.6299      5.7634
H      3.8056      5.5964      8.5480
H     -0.8838      5.5449      7.0208
C      3.4737      2.7448      7.9414
H     -3.2893     12.2120     -1.8436
H      7.0566      1.6965      4.7593
C      7.8528     -0.6852      8.9726
C     -3.5678     11.1769     -1.3383
C      6.5256      6.0751      9.9763
H      1.8622     -0.2221      8.6209
H      2.0366      5.3586      8.7591
C     -6.3301     -9.3651     16.4574
H      4.8757      4.1977      8.8781
H      3.5151     -1.0021      9.2151
H      3.0099      7.0894      9.0672
C     -8.8723    -14.8691     17.6836
C     -2.9340      8.5737      4.8211
O      2.0329     -4.2781      5.1022
C     -1.4175     -4.7180      6.8579
C     -4.2298     -4.6933     12.3985
C     -5.4114    -18.0761     13.0828
C      6.6436      6.8348     12.3015
H     -7.8126     -7.5093     15.4439
H      6.3391      3.4053     12.4705
H     -7.8896    -15.5362     15.3448
H    -11.1731    -13.9095     18.9087
H      8.5841     -5.9802      8.2420
C      8.1455      3.0572      8.4652
H    -12.5266    -11.5100     14.6210
C      7.3151      6.4639     10.9254
C     -4.8539     -6.7296     16.3521
H     -4.8184     -4.7567     15.7174
C     -1.2792      6.5445      4.9512
H      3.2994     -4.5010      8.5275
H     -9.5247    -14.5209     15.4271
H      4.0942      6.4780      2.8047
H      3.8493      4.6298     10.4469
H      2.9911      5.8645      0.9410
C     -3.3935     11.3459      7.5232
C      6.7029      4.9028      8.9417
C      2.9742     -5.2549      5.2455
C     -3.7042     14.4996      1.1842
C      5.8255      4.3885     12.6058
C     -8.1835    -16.5085     14.8993
H     -3.6425      8.0391      5.3319
H      3.7657      0.7328     10.4173
H      7.0642     -3.4522      9.5457
C     -0.0687      3.4420      8.4518
H     -4.8139    -15.5354     15.1485
C      0.5836      8.2774     -0.7131
C      2.0524      2.0097      7.9934
H     -2.2485      6.1567     -1.9558
H     -1.4645     10.7131     -1.9395
C     -0.3988      6.1637      1.6434
H      5.5132      7.1733     12.1105
H     -2.0996      1.9726      4.7645
H      8.2842     -5.5473      6.4464
C     -2.7647     -5.3894     12.5636
O      2.6065     10.3905      0.6085
C      7.1193     -4.4183      7.7021
C      3.6901     -4.4787      7.5483
C      3.4333      1.2600      9.5451
C     -9.2577    -12.6142     17.7297
H     -4.9374    -14.8836     13.5109
H      7.0979      0.0543      6.9541
H      4.5833      6.2693     10.3358
C     -8.6839     -9.2731     16.2946
C     -2.1176      8.4067      0.4851
C     -1.6575      6.9457     -1.0925
H      9.1448      2.7952      8.9669
C      5.4484      2.7118      5.4874
H      1.9388     -2.0263      8.7610
C      2.1272     -1.1214      8.0442
C      4.5175     -1.9792      7.3626
C     -2.3157      4.9309      3.5780
C      3.7469     -3.1492      6.7942
C    -10.3150     -9.3684     15.8807
C      5.3812      6.9105      9.7082
H      1.4956     -1.4584      7.3754
H      2.6490      7.7720      0.5928
H      0.4954     11.8318      0.9458
H     -3.0633     -6.8254     17.0941
H     -3.6957     13.1554     -0.2178
H      3.2638      3.7313      0.0036
O      5.6015      6.8858      6.3542
C      0.7883     -4.8252      4.6895
H      5.1384     -1.4052      6.4720
C     -2.5307      8.5668      3.3361
C     -1.9903      7.4762      2.7745
H      8.1341     -2.4246      8.5840
H     -4.0873     -9.7277     16.0017
C     -2.3169     -4.2427      7.9142
H     -3.0400     15.2119      1.7710
H      1.5467      2.3259      4.6730
H     -1.5712     11.6576     -0.8841
H      4.6240      5.6883     11.7766
C    -10.0378    -12.0520     14.9894
C     -0.0843      8.4227      1.9819
O      5.1759      4.9037     11.4661
O      7.9886      3.4973     10.7666
C    -12.7455     -9.5824     14.6437
C     -0.1328      4.1335      3.9817
C      7.0102     -2.2292      7.0055
H     -4.1233     10.2930     -1.3666
H      2.7175     -2.7981      6.4084
H     -0.5747     -3.7864      3.8753
H     -1.3718     -4.1919      9.7313
O     -0.3709     -2.7577      5.4979
C      5.8602     -2.3455      8.1004
C      0.4519     -6.0823      6.7237
C      1.6003      7.5284      0.9869
C      0.7293      7.7691      2.9144
H      8.4301      0.1100      8.6109
C    -10.4704    -13.1630     17.2353
C      0.8242      2.6259      7.5290
C     -2.7403     10.9344      6.4091
C     -2.2421      2.9170      5.1374
C     -8.2031    -13.6069     17.6830
C      3.2672      3.8211     10.1494
C    -12.1234    -10.6916     15.3410
C     -1.2451      7.4947      1.4886
C      3.6266     -1.0363      8.1794
N    -11.4712    -13.5719     18.0325
C    -10.4459    -11.9002     13.5478
O      5.2328      6.3962     13.9239
C     -3.5900     -6.4486     13.5898
H      5.4453      9.8922      5.8169
C     -2.4049      4.0717      2.5433
C     -2.1490     -4.7819      9.2483
H      9.0881      3.4125      7.5727
H      2.3749      0.7853      6.5154
H      7.7177     -4.0371      5.7307
C     -1.9571      9.9839      0.2453
H      5.4132      7.9509     10.2573
H      1.0173      6.8953      9.2780
H     -0.5804      9.2505      2.3335
H      2.1116      8.3227     -2.4919
H    -11.1980    -12.5609     13.2638
H      0.5421      3.4480      9.3889
C      2.0291      7.6724      2.4881
H    -10.9231    -11.0979     13.0951
C      1.8919      8.5519     -1.4320
C     -6.6585    -15.9680     12.7193
H      8.0426      5.7333     11.0713
C     -2.1594     10.6431     -1.0824
H    -12.4204    -13.2108     17.9214
C      4.2534      8.4068      4.4407
C     -5.3111     -5.6265     15.5621
C     -4.9820    -15.7508     14.1175
C     -7.0452    -17.3139     14.7437
C      4.3029      6.2042      6.4345
C      1.9353      4.9310      2.5715
C      6.3459      5.6077     13.2967
C      5.4142      7.5307      4.0848
C     -4.8524     -6.0658     14.1551
H      2.5713      9.3434     -1.2505
C      4.3235      5.2816      7.5984
O      0.3777     10.9029      0.5421
C      2.1008      5.3832      1.1088
H     -3.4596     -4.0529      7.4940
C      6.1778      7.3023      5.2103
H      0.0015      1.7679      5.6257
H     -3.2904     14.0696      0.0851
H     -3.1996      4.6754      1.5870
C      7.3340      5.6565     14.2662
H     -0.6076      3.4632      3.2387
O      7.4376      7.2433      4.9809
H     -5.1069     -4.7447     10.2829
H     -2.8013      8.5603      1.1950
H      1.9083      3.5417     -0.1944
H      5.1458      5.6446      4.9452
C     -0.5626      7.7819     -1.4418
C      2.8956      6.5076      2.9191
C     -1.4977      4.4039      4.7587
C      0.6181     -6.0475      5.2535
H      5.6104     -4.1034      9.0312
H      3.4120      2.4623      5.6323
C      1.6535      5.7029      4.7761
H    -11.5593    -13.3738     15.4317
H     -1.9810     -5.8995      9.3364
C      7.8428     -5.6290      7.5904
C      4.2569      0.5652      8.3380
C      6.1717      7.7524      2.8622
C     -3.1329     10.2493      5.1937
C     -0.0203      6.4015      3.0397
C     -1.5972      6.2595      3.5619
H     -2.8323     12.1447      8.1493
H      2.0443      4.6263     -0.9939
H     -8.5425    -16.5797     14.0062
H      5.0955      4.0370     13.3305
H     -3.0849      2.7825      4.9805
C      1.9659      1.4701      9.2732
H     -1.8323     11.4174      6.3401
C      0.7469      5.2725      3.5042
C     -7.5019     -8.7600     15.9406
H      1.1218      4.4150      7.6032
H      4.7512     -4.8059      7.3788
C      7.6069      3.9384      9.6092
H     -2.3812     11.6468      0.8816
H      6.5153     -1.7583      6.0496
C      1.8702      6.5358      8.6291
C     -1.3756      5.4012      5.8347
C    -10.6954    -12.8158     15.9058
C      1.7946      4.3657      5.4970
C      1.8788      6.5136      7.1139
C      2.4935      4.3653      0.0575
H     -8.9480    -11.6234     15.0609
H     -3.9265     -4.1059      9.3182
H     -9.5409    -12.0638     13.0766
H      7.1057     -6.4327      7.3723
H      7.5372      2.2192      8.6367
H     -2.5470     10.5764      4.2951
C     -5.2485     12.7267      0.4497
H      5.7631      1.6365      3.4379
C     -0.3798     -3.9296      4.9046
C     -3.2900     -4.3702     10.0567
C      8.2502     -1.8134      7.9324
H     -4.1864     10.1898      5.1571
C     -0.4592     -5.4761      7.5025
C      1.1973      3.1432      5.1890
O     -3.8944     -7.1259     17.3087
C     -1.5120      8.0431      5.4529
C      6.4241      0.8997      7.5625
C      5.6307      1.5611      6.6251
C      3.2180      1.2052      6.1767
H      4.9383      2.8775      9.4219
H      8.2482     -1.4483      9.6262
H     -0.8776     -2.9859      6.3724
H     -9.1567    -11.5587     16.9481
H     -0.3125     -5.6067      8.6294
C      1.8468      4.8652      7.0122
H    -12.2652     -8.7519     14.4694
C      3.9025      5.4997      5.1728
C      3.9571      2.6489      9.4426
H     -6.2531     12.4393      0.1527
H      0.2383      6.1864     -0.0406
C     -4.2438     -4.8668     10.9792
H      2.7337      3.9127     11.0121
H      7.4766      5.6820      8.2674
H     -0.9289      5.9134     -0.6230
C      4.2129      3.1960      4.8670
C      4.3539      9.7146      5.4913
C      6.3252     -0.9326      9.2169
C      7.1734     -3.5347      6.7415
C      5.4599      4.5264      8.2210
C      5.6517      0.2014      8.5013
H     -1.0552      3.2582      8.0969
H     -7.0688    -14.9409     13.2631
H     -4.0061     -7.1823     12.8836
C      1.3667     10.1330      0.6893
H      2.5622      4.2203      9.4592
H     -2.2785      9.4608      2.8872
