282

C      7.0836      8.7987     13.8187
N     10.8669     -2.7052      1.4323
C      3.7154      1.4523      7.0555
C      1.9891      2.5061      2.4983
C      7.5991      5.0724      2.8643
H     10.0398     -6.1516      2.6399
C      7.5754      3.7403      3.3387
C      3.5445      4.2931      5.6098
C      6.6961      9.8077     11.7646
C      3.2919      7.3222     19.2916
C      5.9846      1.9892      4.0149
C      6.0938     -3.4107      8.7635
C      0.5750      8.7450     13.6134
C      9.6171     -0.7810     -0.4723
C      8.2347      0.7997      0.6360
N      1.0392      2.4504      6.0041
H      6.2178      8.8885     11.2708
C     13.7007     -6.6251      0.4650
O     -0.3637      2.1086      0.2993
C      3.4030      4.3910      7.0338
H      0.2944      7.0669     10.4214
H      7.6554      1.5067      1.1149
C      3.0859      6.1985     17.2132
C      3.5587     10.6320     16.4743
H     -1.1499      2.4790      5.5138
H      5.4245      6.7851     14.9507
C      4.0438      9.3672     16.0375
H      4.2158      6.9477      9.1213
H      6.8864     10.5523     11.0712
H      4.2182      5.7430      8.5611
H     -0.4697      5.3629      6.6592
H      5.9482      1.3767      9.1505
C      3.2141      2.9577      7.8654
H     10.0001     -1.2568     -2.5319
H      7.0264      1.6970      4.5510
C      7.7789     -0.7368      8.7241
C      9.8735     -1.7723     -1.6567
C      5.9875      5.9104      9.9423
H      1.5555     -0.2412      8.1370
H      0.8610      6.3948      8.8294
C      6.3663      3.3929      3.5327
H      5.3577      3.2449      7.4029
H      3.4311     -1.0057      9.6263
H      2.4218      6.0196      9.3871
C      4.4579     11.0030     17.5987
C     10.3852     -4.2556      5.0810
O     15.1641     -4.0548      4.9141
C     -1.3856      7.8381      6.9951
C     -4.2092      7.8930     12.1541
C      7.5467      7.5281     13.0977
C      6.5023      6.6240     12.3774
H      5.7057      5.3056      3.0697
H      4.5799      9.8661     14.2054
H      1.9033     -2.0358      5.1439
H      7.7504     -5.7532      9.2902
C      7.5163      2.6787      8.9088
H      0.8355      1.3101      2.3594
C      6.7475      6.0674     11.1023
C      8.2859      6.1094      3.6228
C     -0.9064      6.7956      5.0435
H      3.4669      8.2999     21.3940
H      3.8439     11.3527     15.7708
H      3.7888      6.3721     15.3154
H      2.9316      4.3350      9.9891
H     15.9828     -7.7645      0.3531
C      9.7294     -1.4033      7.3931
C      6.4170      4.8667      9.0297
C      3.2857      7.7306     17.7265
C      9.3483      1.4883      0.5283
C      5.5676      4.1822     13.2629
C      4.6290      8.9817     14.7725
H      9.7599     -5.1995      5.4510
H      8.2691      8.4496      3.2773
H      2.8267      0.6078     10.6388
H      6.4999     -3.5449      9.7977
C     -0.6119      3.3580      7.8728
H      8.3110     10.0099     15.1272
C      0.4307      8.4951     11.9328
C      1.7529      2.3264      8.2752
H     -2.2189      7.3005     10.2361
H     10.6790     -3.6167     -1.8984
C     12.3789     -6.6258      1.2828
H      5.6604      7.5102     12.6137
H     -2.5652      2.5593      4.2578
H      7.8656     -6.0761      7.5432
C     -2.7671      7.5042     12.4976
O      2.7881     10.0009     14.1652
C      6.9698     -4.1428      7.9416
C      3.9206      8.2895     20.3695
C      3.2394      1.1167      9.5814
C      2.9647      0.4815      5.0349
H      9.0801      9.8273     13.2568
H      6.2993      0.0792      6.3972
H     -2.0875      4.7964      6.7476
H      4.8172      7.0784     11.2927
C      4.0916      3.6283      3.3665
C     10.8201     -4.4957      0.4200
C     -1.8862      7.1714     11.4391
H      8.3684      2.2820      9.2691
C      5.1559      2.1469      5.2420
H      1.9404     -2.0571      7.7265
H      4.8822     12.7182     16.5072
C      2.1936     -1.0509      7.8207
C      4.4747     -1.8302      7.5271
C     -1.9505      5.0515      3.7156
C      3.9154      9.7407     19.8503
C      2.7496      3.8497      2.6445
C      4.7829      6.9985     10.0004
H      2.6906     -0.9444      6.8199
H      2.3983      7.6813     12.5824
H      1.4333     11.7887     13.4656
H     10.5119     -0.6593      0.1827
H     12.9035     -9.1554     -0.3420
O      5.8125      6.7940      6.6570
C     14.0074     -4.5903      4.2692
H      4.5443     -1.3164      6.4838
C     10.2592     -4.1487      3.4241
C     10.8053     -5.4150      2.8276
H      8.6319     -2.6266      8.4458
H      8.2567      3.0170      3.4965
C     -2.6598      7.7013      7.6217
H      9.6213      2.1510      1.4029
H      4.7870      5.6463     12.2124
C      2.7619      1.1287      2.0708
C     12.7346     -4.4096      2.0133
O      4.3939      4.6483     12.5157
O      7.2534      3.6708     10.9819
C     -0.5136      2.7711      1.4064
C      0.1643      3.9984      4.2622
C      6.9209     -2.1477      7.0047
H      8.8421     -2.3902     -1.6739
H      2.7717      9.8404     19.7761
H     12.3657     -3.0319      4.3344
H     -0.7950      8.6071     10.4965
O     13.4317     -2.8199      6.0800
C      5.9015     -1.9569      8.0505
C      0.8801      7.2015      6.6274
C      1.7689      7.5102     13.5930
H      2.3561      8.5342     15.6462
C     13.7698     -5.1653      3.0314
H      7.9001      0.0311      8.0502
C      2.1215     -0.0720      4.0213
C      0.5001      2.6353      7.6124
C     10.4590     -2.1226      6.6983
C     -1.9687      3.1196      5.0347
C      5.0766     12.2689     17.3582
C      3.5211      3.6337     10.4599
C      0.7132      2.4733      2.2187
C     11.6722     -5.1519      1.4789
C      3.6437     -0.9959      8.3359
N      1.4070     -1.0354      4.7327
C      2.3596      1.0860      0.6716
O      5.1762      6.5707     14.0947
C      9.7134      6.4759     13.4049
H      5.7219      9.8853     18.5112
C     -2.4778      4.4097      2.6233
C     -2.9615      7.6162      9.0061
H      7.8804      3.2001      7.8520
H      1.6326      0.7602      7.0874
H      7.5772     -4.0260      5.9099
C     10.7684     -3.1364      0.1695
H      5.5181      7.9193      9.7102
H      1.9202      7.8176      9.2852
H      1.5625      8.3263     10.4827
H      3.2316      0.9189      0.1609
H     -1.1237      1.9083     -0.3669
C      2.0453      7.4819     15.1741
H      1.7063      0.1647      0.6079
C      1.6369      8.7830     11.4349
C      6.8876     10.1142     12.9638
H      7.7218      5.4048     11.3952
C     10.9317     -2.7263     -1.3874
H      0.3678     -0.9876      4.7268
C      4.4638      8.6686      4.3994
C      7.8981      7.5239      3.0778
C      8.4790      9.2567     14.2367
C      6.0280      8.6136     15.0523
C      4.3814      6.4033      6.4345
C      2.0900      5.0315      2.4486
C      6.3346      5.5546     13.5879
C      5.7759      7.7199      4.3973
C      8.3754      6.5577     13.7387
H      2.4649      9.6707     11.4884
C      4.4917      5.1952      7.6672
O      0.9438     11.1501     13.2190
C     14.7502     -7.8280      0.5819
H     -3.5250      7.9819      6.7416
C      6.3664      7.4112      5.5421
H      0.3761      1.9526      5.4780
H     10.2058      1.0674      0.2172
H     -3.3736      4.7941      2.0697
C      7.4288      5.5247     14.4559
O      7.6277      7.4430      5.5077
H     -5.1430      7.3494     10.5166
H      9.3090      8.4820     14.2463
H     14.4955     -9.0337     -1.2960
H      5.2542      5.6641      4.2769
C     -0.5496      7.8302     11.0381
H      6.5714      4.2224      7.1817
C      2.8379      6.2677     15.6318
C     -1.0966      4.2286      4.8850
C      0.8817      6.8064      5.2579
H      5.2536     -3.8130      9.1623
C      1.7437      5.6994      4.7237
H      1.1391     -0.3998      2.0342
H     -3.4504      6.5451      9.2555
C      7.3030     -5.5772      8.3518
C      4.0850      0.4464      8.3508
C      6.4449      7.6873      3.1412
C      9.8412     -3.0675      5.7801
C     12.8131     -6.7125      2.8764
C     -1.2975      6.4723      3.6424
H      9.9654     -0.6585      8.3336
H     14.5861     -9.8497      0.3518
H      4.4371      8.0380     14.1045
H      5.0616      3.9785     14.1705
H     -3.1233      3.3546      5.7325
C      1.8342      1.3984      9.3737
H     11.5346     -2.0350      6.7594
C      0.9224      5.1794      3.4356
C      5.2849      4.3300      3.3941
H      1.2032      4.4558      7.6836
C      6.9958      3.7983      9.8367
H     11.3372     -1.8521      1.3501
H      6.9057     -1.6674      5.9881
C      1.7659      6.7541      8.8825
C     -1.2546      5.3966      5.9991
C      2.0444     -0.0112      2.6357
C      2.0373      4.5938      5.5444
C      2.1558      6.9926      7.2526
C     14.1616     -8.9995     -0.1730
H     11.9088     -7.5415      0.9554
H      3.5888      1.0258      2.4696
H     -4.2270      9.2658      9.4566
H      1.8392      1.9090      0.2603
H      6.1752     -6.0027      8.7418
H      6.8069      1.8390      9.0945
H      9.3721     -2.3715      5.1259
C      8.3063     -0.4351     -0.4110
H      5.6457      1.6159      2.8772
C     12.7959     -3.7732      5.0125
C     -3.8142      8.5050      9.7700
H      9.7497     -3.3170      3.1454
C      8.4250     -1.8679      7.8726
H     -2.6690      3.3079      2.7872
H      8.6713     -3.1258      6.4941
C     -0.0163      7.9769      7.5029
C      1.1247      3.6481      5.2801
O      8.9752      5.7714      4.7020
C     11.5976     -4.5978      5.6399
C      6.1353      0.8215      7.1897
C      5.0726      1.5984      6.4282
C      2.6401      0.6306      6.4028
H      7.1182      1.5458      7.2478
H      5.0812      2.6382      9.4015
H      8.1169     -0.7362      9.8125
H     12.6656     -2.4731      6.4949
H      3.8614      0.8728      4.8464
H     -0.1863      7.6101      8.6517
C      1.9723      4.9793      7.0770
H     -1.5321      3.2694      1.1986
C      4.2143      5.5945      5.1273
C      3.9495      2.5446      9.4190
H      7.2070     -0.8818     -1.0555
H     13.3330     -6.7471     -0.4734
C     -4.5173      8.1056     10.8708
H      4.3298      4.3098     10.6192
H      7.2578      5.0869      8.1016
H     -1.1745      6.2448     11.5567
C      3.9672      2.8716      4.7819
C      4.5666      9.7654     18.4909
C      6.4149     -0.9710      9.0216
C      7.3123     -3.4556      6.8372
C      5.6088      4.2116      7.8542
C      5.6397      0.4783      8.4535
H     -1.3531      3.6357      7.0312
H      7.5600     10.9554     13.1257
H      6.5371     -1.2985     10.1712
H     10.4076      5.3914     13.7269
C      1.5444      9.9993     13.6949
H      2.9217      3.1487     11.2415
H     11.3291     -3.7598      3.4800
