290

C      7.3345      8.7878     13.8649
N     10.8065     -2.7585      1.4085
C      3.7620      1.4595      7.0959
C      2.0740      2.4136      2.4914
H      1.0583      0.9403      9.4188
C      7.9704      4.7930      2.8462
H      9.6415     -6.0288      3.0992
C      7.6373      3.3282      3.3931
C      3.4287      4.4074      5.4925
C      6.8363      9.8399     11.7058
C      3.2785      7.1550     19.7569
C      5.5524      1.8586      4.0091
C      6.3431     -3.3074      8.9564
C      0.6223      8.6815     13.4930
C      9.3953     -0.9460     -0.2749
C      8.2118      0.9102      0.1992
N      0.4395      2.5279      6.1609
H      6.4892      8.8532     11.6360
C     13.8950     -6.6316      0.6622
O     -0.5883      2.3874      0.2890
C      3.3374      4.0910      7.0766
H      0.0151      7.6825     10.1941
H      7.2862      1.0274      0.5423
C      2.8001      6.6306     17.2071
C      3.9093     10.6326     16.4075
H     -2.5812      3.0992      5.9036
H      4.6790      6.5385      0.9611
C      4.3748      9.4202     16.0503
H      4.3757      6.6898     -3.5951
H      6.3765     10.2118     10.8198
H      4.2087      5.6173     -4.2808
H     -0.3599      4.4799      6.0368
H      5.9101      1.4472      9.0241
C      3.4032      2.7581      7.8437
H      8.9229     -2.0199     -1.9735
H      6.4143      1.1870      4.0233
C      8.0700     -0.4498      8.5770
C      9.6290     -2.1859     -1.1709
C      6.1129      5.8660     -2.5682
H      1.4163     -0.3471      8.0973
H      2.0634      5.3899      9.0875
C      6.2466      3.0170      3.3859
H      5.5043      3.1872     -4.3632
H      3.3880     -1.7673      9.3459
H      2.5896      6.8188      9.6115
C      4.2379     11.1242     17.7717
C     10.2144     -4.2524      5.2659
O     14.9500     -4.1482      4.9315
C     -1.4091      7.9863      7.1269
C     -4.2037      7.7248     11.8564
C      7.8395      7.4173     12.9418
C      6.6908      6.7162     -0.1833
H      5.2950     10.5670     14.5176
H      0.9807     -1.9328      4.9347
H      7.5689     -5.6446      9.5764
C      7.9694      2.5255     -3.9515
H      0.6872      1.0363      1.8659
C      6.8505      6.0569     -1.5308
C      8.2228      5.7882      3.7106
H      8.5234      7.7313      2.7503
C     -0.9901      6.7085      5.1783
H      3.2472      7.8071     21.4669
H      4.0547     11.4486     15.5831
H      4.0306      6.6246     15.5113
H      3.4124      4.5712      9.7875
H     15.7026     -7.7449      0.3247
C      9.7487     -1.4752      7.0732
C      6.6522      4.8608     -3.7211
C      3.1160      7.8364     18.0475
C      9.2248      1.6054      0.3629
C      5.5945      4.4713      0.4260
C      5.1135      9.3006     14.8031
H      9.8072     -5.3333      5.3253
H      7.9362      7.9184      4.4076
H      3.2117      0.6484     10.7221
H      6.2729     -3.3202     10.0636
H      5.3051     12.3930     18.6223
C     -0.3404      3.1749      8.3776
H      8.3697      9.8876     15.4118
C      0.4997      8.4067     12.0042
C      1.9071      2.5236      8.2328
H     -1.6761      6.6476     10.1955
H     11.0935     -3.1818     -2.0214
C     12.5754     -6.7701      1.4073
H      5.7296      7.3987     -0.4037
H     -1.9198      2.0612      5.1499
H      8.2443     -5.9723      7.6020
C     -2.6947      7.2511     12.2388
O      2.6935     10.1508     13.8813
C      7.2325     -4.1427      8.0605
C      4.0269      8.1862     20.4461
C      3.3505      1.0998      9.5737
C      3.0130      0.5868      4.9802
H      8.8339     10.3877     14.1358
H      6.6536     -0.2805      6.5991
H     -2.1558      5.6482      6.6402
H      4.7137      6.9864     -1.9667
C      4.1239      3.5779      3.6259
C     10.9547     -4.7392      0.3042
C     -1.6343      6.6297     11.2401
H      8.5209      1.7585     -3.4372
C      5.1931      2.6056      5.4068
H      1.6186     -1.8154      8.1569
H      4.9992     12.6316     16.7562
C      2.1246     -0.8447      7.7663
C      4.4474     -1.9461      7.6762
C     -2.1752      4.9847      3.3573
C      3.6598      9.6736     19.7146
C      3.0024      3.6642      2.6835
C      5.1247      6.8626     -2.8311
H      1.9494     -1.3858      6.9049
H      2.4132      7.6730     12.6491
H      0.4674     11.1808     14.9454
H      8.1861      6.4914     18.5886
H      9.8805     -1.4195      0.7137
H     13.8631     -8.5649      1.0327
O      5.4779      6.7841     19.4078
C     13.5996     -4.6914      4.4635
H      4.7669     -1.4411      6.7516
C     10.5683     -4.2108      3.6259
C     10.7041     -5.5639      2.8256
H      8.8800     -2.1092      8.3707
H      7.9557      2.5846      4.0615
C     -2.7156      7.7561      7.6187
H      9.1778      2.3712      1.0933
H     11.9354     -1.5427     -1.0201
H      4.1716      4.4131     -0.8115
C      2.8331      1.1637      1.9508
C     12.7627     -4.4315      1.7916
O      4.6544      4.9714     -0.4042
O      7.6729      3.6966     -1.9214
C     -0.0871      3.1574      1.2727
C      0.0825      3.9870      4.0149
C      6.8918     -2.0296      7.2016
H      9.1571     -2.9700     -0.5315
H      2.6420      9.2991     19.7050
H     12.0742     -2.9441      4.5315
H     -1.1739      8.7616     10.6895
O     13.5368     -3.0923      6.3075
C      6.0728     -1.9987      8.3435
C      0.8700      7.1980      6.7872
C      1.7791      7.4420     13.6730
H      2.6633      8.6618     15.4210
C     13.5630     -5.2064      2.9771
H      7.9580      0.4573      7.9510
C      2.0151     -0.1308      4.2989
C      0.7682      3.0240      7.4339
C     10.3999     -2.0325      6.0310
C     -2.2673      3.0019      4.9898
C      5.0955     12.1237     17.7124
C      3.3381      3.6720     10.4589
C      0.6980      2.1229      2.0333
C     11.6440     -5.4060      1.5196
C      3.5836     -1.1955      8.4670
N      1.1628     -0.9094      5.0418
C      2.3569      0.4617      0.5137
O      5.2050      6.3815      1.7587
C      9.8228      6.2687      0.3598
H      5.4685      9.5885     18.6347
C     -2.6700      4.2193      2.3367
C     -3.2224      7.8365      9.0633
H      8.0978      2.9840     -4.9648
H      1.5184      0.8614      6.2389
H      7.4240     -4.0751      6.0876
C     11.1891     -3.2886      0.2670
H      5.6127      7.7758     -3.3329
H      0.6931      6.8391      9.5657
H     12.6585     -3.2260      2.0963
H      1.6086      7.9804     10.1435
H      1.9293     -0.5816      0.4625
H     -1.0638      2.2864     -0.6987
H     -0.3410      3.7683      9.2225
C      2.0644      7.7288     15.1513
H      1.5269      1.2136      0.3865
C      1.6053      8.6085     11.1090
C      7.0190     10.0114     13.0760
H      7.7728      5.3685     -1.2491
C     11.2937     -2.4313     -0.9705
H      1.1897     -0.6116      6.1303
C      4.3013      8.5354     17.4231
C      7.7830      7.2247      3.5502
C      8.4438      9.3990     14.4870
C      6.4333      8.6207     15.0008
C      4.2957      6.0856     19.4863
C      2.0410      5.1822      2.4878
C      6.5078      5.6761      0.7714
C      5.6018      7.7078     17.0953
C      8.4992      6.5141      0.8633
H      2.2217      8.8813     12.0073
C      4.3787      5.0276     -5.0712
O      0.6495     11.0021     13.8550
C     14.8448     -7.7853      0.9119
H     -3.5994      7.4450      7.0382
C      5.9799      7.2633     18.3759
H      0.0163      1.7352      6.3121
H     10.3393      1.8931      0.1940
C      7.6970      5.5247      1.6164
H      0.0076      2.9379      3.3754
O      7.4789      7.3142     18.7167
H     -5.6948      7.8449     10.8672
H      9.3226      8.6496     14.1703
H     14.0398     -8.6638     -0.9567
H      4.9652      5.6118      4.6155
C     -0.5978      7.7481     11.0517
H      6.3802      3.7881     -5.5887
C      2.9726      6.5356     15.7740
C     -1.6092      4.3683      4.5474
C      0.6037      6.9333      5.1915
H      5.7470     -4.0700      8.7500
H      2.7573      2.6801      4.9321
C      1.5521      5.8296      4.5421
H      2.3619     -1.0059      2.1328
H     -3.2434      6.9380      9.5340
C      7.2384     -5.5883      8.4375
C      3.8700      0.3550      8.5315
C      6.5780      7.7845      3.0909
C      9.3939     -3.1518      5.4412
C     12.8390     -6.7926      2.9743
C     -1.3994      6.2726      3.6569
H     10.3368     -0.7909      7.6872
H     14.8713    -10.1873      0.1708
H      4.4309      8.7317     14.1320
H      5.1347      4.4318      2.0309
H     -3.1697      2.9016      4.5690
C      2.0145      1.5855      9.1805
H     11.3131     -2.0238      5.6466
C      0.8591      5.0717      3.2948
C      5.3829      4.1695      3.2422
H      1.5628      4.4048      7.8562
H      5.0702      7.8402     20.6318
C      7.5572      3.9416     -3.1677
H     11.0172     -1.7378      1.0975
H      6.3868     -1.4728      6.2984
C      1.8750      6.5038      8.9681
C     -1.3482      5.2520      5.8670
C      2.0766     -0.1246      2.7442
C      1.8440      4.7201      5.6104
C      2.0567      6.6453      7.2812
C     14.2906     -9.0567      0.0239
H     12.2960     -7.7797      0.9943
H      3.8746      1.0176      2.2737
H     -3.7359      9.8397      9.5627
H      3.0530      0.0323     -0.3865
H      6.2886     -5.7749      8.8696
H      6.8821      2.2328     -3.7692
H      8.9028     -2.8885      4.6408
C      8.1473     -0.3725     -0.5418
H      4.5307      1.5774      3.4213
C     12.6478     -3.8344      5.1207
C     -3.7243      8.7388      9.7256
H      9.5372     -3.9000      3.2028
C      8.3747     -1.5546      7.6601
H     -2.9081      3.2935      2.8956
H      9.0348     -3.2490      6.4689
C     -0.0811      7.6515      7.5819
C      0.9496      3.5342      5.0271
O      9.1534      5.7266      4.7476
C     11.6384     -4.7713      5.6800
C      5.9358      0.7496      7.1633
C      5.1149      1.5630      6.5253
C      2.6991      1.2398      6.2826
H      6.6958      1.5825      6.7364
H      5.1371      2.2936     10.0895
H      8.6655     -0.7295      9.5959
H     12.9416     -2.4446      6.7530
H      3.7463      1.1927      4.5822
H      0.0686      7.9838      8.5434
C      1.9589      4.9990      7.0378
H     -0.8325      3.9301      1.1577
C      3.9509      5.7071      5.1378
C      4.0405      2.5421      9.4481
H      7.3372     -1.0005     -1.2462
H     13.4155     -6.8314     -0.3483
C     -4.6003      8.5072     10.8525
H      4.5547      3.5294     11.1215
H      7.2061      5.4961     -4.3871
H     -1.4560      5.6055     11.6166
C      3.9819      3.1637      4.9527
C      4.3943      9.9496     18.5177
C      6.4593     -0.6279      8.9085
C      7.1268     -3.4215      6.8464
C      5.6708      4.1824     -4.7509
C      5.5011      0.5459      8.6238
H     -1.3244      3.3877      7.7021
H      7.1715     11.1164     13.4946
H      6.4259     -0.6942     10.0536
H     10.3228      5.9644      1.3579
C      1.3988      9.9517     13.6778
H      2.4811      3.1833     10.9298
H     11.4594     -3.6413      3.5949
