282

C      6.7957     -3.8531     13.7221
N     11.1493     11.0894      0.9403
C      4.0515      1.6928      7.2233
C      2.2402      2.6527     15.4315
H      1.4214      1.0471     10.1477
C      7.7816      4.9371     15.2487
H      9.8891      6.6277      2.3897
C      8.0349      3.6090     15.8515
C     16.2100      4.1417     -7.4238
C      6.2311     -3.1195     11.2921
C      3.1803      7.3234      6.6995
C     19.1609      1.7514     -8.8737
C      6.2161      9.2932      8.7721
C     13.6218      8.9630      1.0115
C      9.2196     12.1595     -0.3091
C      8.0742     13.8797      1.0830
N      0.6716      2.5342      6.0988
H      6.0540     -4.1671     10.9258
C     13.7907      6.4093      0.7439
O     -1.1082      3.0865     14.1958
C      3.1789      4.0896      7.2931
H     12.2719      7.6663     -2.5869
H      7.7152     14.1586      2.0788
C     15.8390      6.3762     -8.4083
C      3.3365     -2.4769     16.6228
H     -2.4896      3.7161      6.1339
C      3.8380     -3.7090     16.0918
H      6.0516      7.7485      9.8877
H      6.2311     -2.3177     10.6494
H      4.0287      5.6662      8.5358
H     -0.9917      5.1313      7.0228
C      3.2215      2.8190      8.0669
H      9.0163     11.0712     -2.1063
H     19.1918      0.5897     -8.4514
C      8.0400     12.3685      8.4518
C      9.1058     10.9530     -1.0165
C      6.5856      5.7330      9.7012
H      1.8037     12.7817      8.6385
H     15.4311      5.0596     -3.8951
C      6.6715      2.9091     15.9208
H      5.0691      4.1683      9.1894
H      4.3329     11.7222      9.5041
H     16.1849      6.8086     -4.0474
C      3.9676     -2.0368     17.7062
C     10.1750      8.3716      5.0505
O      1.8944      8.7813      5.2635
C     11.4928      8.0718     -5.7040
C      8.7959      7.9723     -0.6693
C      7.3847     -5.3855     12.9079
C      6.4364      6.5831     12.1277
H      6.2457      3.4284     12.2817
H      4.4618     -2.9105     14.0004
H      1.7085     -1.9626     18.7345
H      8.5379      7.7966      8.2705
C      8.2454      2.9250      8.6746
H      0.5966      1.4206     14.1666
C      7.1187      5.8312     11.0131
C      8.1273      6.0251     16.0931
H      8.5458      8.0752     15.7683
C     -0.9552      6.7364      5.2524
H      3.5847      8.5383      8.3235
H      3.0659     -1.6671     15.7170
H     16.8389      6.5591    -10.0866
H      2.9566      4.3838     10.7841
C      9.8128     11.6209      6.9912
C      6.8031      4.7455      8.4096
C      3.0197      7.7442      5.1807
C      9.2370     14.7385      1.2627
C      5.5636      4.1973     12.5038
C      4.4594     -3.7986     14.6730
H      9.3956      8.0152      5.6433
H      9.0251      8.5372      3.8075
H      4.1745      0.9364     10.4409
H      6.8250      9.4462      9.6641
H     18.3923      0.6169     -6.7956
C     -0.3946      3.1145      8.3764
H      7.9106     -3.5373     15.2423
C     13.3585      8.4392     -0.5875
C      1.8887      2.1054      8.2853
H     10.9487      6.4967     -1.9087
H     10.4680      9.9632     -2.0631
C     12.5693      6.4412      1.5426
H      5.5254      7.0524     11.7597
H     -1.5517      2.1831      5.4107
H      8.4147      7.1028      6.8562
C     10.0571      7.5258     -0.1575
O     15.5718     10.4109      0.9154
C      7.0529      8.6180      7.5772
C      4.0288      8.5930      7.4736
C      3.6277      1.4254      9.6234
C      3.3607      0.4374     17.9912
H      7.6787     -2.1175     14.5787
H     19.8890      1.1682     -6.0858
H     -2.3729      5.5582      6.0351
H      5.4324      6.9845      8.3082
C      4.1862      3.5717     16.2730
C     10.5741      8.5421      0.9623
C     11.3727      6.7291     -0.9336
H      8.8212      2.1403      9.1991
C     18.3989      2.6627     -7.7406
H      2.3894     11.3002     10.0620
H      5.6031     -0.5664     18.2742
C      2.4688     11.6520      8.8052
C      4.4591     10.8484      7.6102
C     -1.7817      5.0970      3.7762
C      3.8299      9.7714      6.8255
C      2.7818      3.8789     15.7978
C      5.6948      6.9248      9.4283
H      1.7369     11.0709      8.3042
H     15.3441      8.0894      0.1702
H     12.8417     11.2884      1.5706
H      8.7710      6.6306     17.8278
H     10.0747     12.7942     -0.3722
H     14.9776      3.1427    -12.2377
O     18.4929      6.8069     -6.5418
C      0.6033      8.0652      4.5919
C      9.9408      8.5775      3.4626
C     10.6957      7.3824      2.7543
H      8.2706     10.2832      7.9557
H      9.0515      3.6820     16.2910
C     10.4108      8.2979     -5.0555
H      9.0927     15.3250      2.1627
H     11.0820     11.5013     -1.0536
H      5.2689      4.6899     10.3117
C      2.7388      1.1723     15.1825
C     12.7876      8.6078    -10.7280
O      4.7945      4.5833     11.2382
O      7.0083      3.4151     10.5540
C      0.1259      3.3231     14.5463
C     -0.0171      4.1310      4.1442
C      7.1848     10.8842      6.6595
H      8.3294     10.4558     -0.6141
H      2.8480      9.9336      6.6180
H     11.6694      9.2317     -8.9012
H     11.8510      8.9709     -1.6455
O     12.9967     10.1145     -7.5212
C      6.0572     10.7920      8.0779
C     13.7313      6.9662     -6.0206
C     14.5576      7.7691      1.1808
H      2.6258     -4.2619     15.8614
C     13.4659      7.7842     -9.7603
H      8.3753     13.2991      7.7747
C      2.2379     -0.0822     17.4638
C      0.6942      2.6649      7.6529
C     10.9680     11.0133      6.4629
C     -1.9372      3.0904      5.3060
C      4.3153     -0.7771     18.1929
C      2.4917      3.4814     10.2650
C      0.9601      2.3305     14.9281
C     11.5984      7.9054      1.7750
C      3.8106     11.6761      8.5972
N      1.4388     -0.9316     18.3901
C      2.5546      0.5705     13.8805
C      9.6096      6.4168      0.6728
H     18.4335      9.9865     -7.2860
C     -2.1716      4.4740      2.7447
C     10.2954      7.9358     -3.7372
H      8.8627      3.5817      7.8600
H      2.7891     -0.0860      6.7473
C     10.7527     10.0561      0.2550
H      4.6898      6.4706      9.8935
H     14.7167      6.9110     -3.1281
H     11.8803      9.4090    -10.3755
H     14.9831      7.7457     -1.8383
H      2.8553     -0.4424     13.5240
H     -0.2947      2.8157      9.4965
C     14.9239      7.5931    -10.2304
H      1.7172      0.3502     13.2091
C     14.5959      8.6471     -1.3645
C      6.2694     -2.8750     12.6359
H      7.5319      4.6730     11.4675
C     10.5923     10.4597     -1.1817
H      0.5228     -0.6504     18.2506
C     17.2193      8.5424     -8.3952
C      7.7719      7.3451     15.5275
C      7.9184     -3.0249     14.3021
C      5.8975     -4.2508     14.7454
C     17.1495      6.2016     -6.2237
C     15.0965      5.0458    -10.3951
C      6.2423      5.4240     13.1546
C     18.3615      7.6519     -8.9177
C      7.9525      6.8198     14.0752
H     15.4824      9.5047     -0.9297
C      4.2314      5.2200      7.7316
O     13.8406     11.4522      1.4428
C     14.8494      5.0744    -11.7850
H      9.6162      8.7948     -5.5777
C     18.9290      7.3297     -7.7827
H     -0.0604      1.6654      5.9624
H     10.2549     14.8811      0.6681
H     -2.5349      4.8164      1.8270
C      7.2117      5.5928     14.1329
H     -0.4506      3.2661      3.5670
O     20.2073      7.4165     -7.5853
H      7.5460      8.0920     -2.1402
H      9.5099      8.7974      1.3716
H     14.1744      3.4913    -13.4263
H     17.6054      5.5157     -8.5305
C     12.1665      7.9953     -1.4078
H      5.3756      3.4029      7.6238
C     15.8041      6.4357     -9.7680
C     -1.1957      4.3935      4.8224
C      0.4998      7.0470      5.4326
H      5.2773      9.0985      8.7156
H      2.0137      1.3127      6.4694
C     14.3014      5.5752     -8.0530
H      1.7329     -0.8351     15.7616
H     10.5820      6.9007     -3.4347
C      7.7984      7.4586      7.6660
C      4.2878      0.6063      8.4321
C     19.2586      8.0051     -9.9492
C     10.2539      9.9753      5.4709
C     12.8193      6.4371     -9.8939
C     -1.3688      6.4400      3.7529
H     10.3778     12.7310      7.2165
H     16.0967      3.9311    -13.2776
H      3.9413     -4.6205     14.3159
H      4.7882      3.5909     13.3460
H     -2.7383      2.9083      4.5178
C      2.1206      1.1696      9.2380
H     11.0842     11.8884      5.7216
C     13.8565      5.3930     -9.4697
C      5.4291      3.7092     15.6014
H     14.0425      4.5318     -5.1345
H      5.0867      8.4061      7.5051
C      7.5067      3.7368      9.4086
H     10.7112     12.0604      0.7457
H      6.7844     11.5214      5.8714
C     15.2373      6.2322     -3.8983
C     -1.3523      5.3870      5.9811
C      1.8640      0.3374     16.1412
C     14.7784      4.4501     -7.2724
C     14.9375      6.5426     -5.4475
C     15.0586      4.0358    -12.9016
H     11.8530      5.7562      1.2859
H      3.8049      0.8920     15.6245
H      8.7729      9.4860     -3.6195
H      3.2756      1.2756     13.2677
H      7.3967      6.7972      8.2439
H     10.2250     10.5295      4.4955
C      8.0751     12.5697      0.3160
H     18.0721      1.2638     -9.4664
C     12.4930      8.9444     -7.9453
C      9.5222      8.8569     -2.9999
H      8.6647     -2.7694     13.6085
C      8.3258     11.2582      7.4859
H     -2.6759      3.5138      2.7173
H      9.1049     10.4385      5.7416
C     12.8459      7.7388     -5.2890
C      1.2141      3.2081      5.0314
O      8.6920      5.6796     17.2289
C     11.3986      8.1124     -7.3152
C     19.2768      1.4259     -5.4323
C     18.3718      1.6738     -6.6132
C      3.0587      1.0413      6.3714
H      4.5647      3.0604      9.2981
H      8.4445     12.2896      9.5145
H     12.4263     10.6729     -6.8062
H      3.6990      1.3194     17.4634
H     13.0246      7.2841     -4.0274
C     14.8943      4.9035     -5.7215
H      0.3319      4.6027     14.7551
C     16.8787      5.4868     -7.7053
C      3.5779      2.8976      9.4219
H      7.2339     12.4422     -0.2748
H     13.1341      6.5746     -0.2985
C      8.6573      8.4559     -1.8259
H      2.7625      2.7562     11.1063
H      7.5458      4.5365      7.6940
H     11.8431      5.9721     -0.5603
C     17.1379      3.0457     -8.1177
C     17.4185      9.6508     -7.4745
C      6.4187     12.0236      8.7210
C      6.9068      9.4372      6.4189
C      5.4832      4.3832      8.1967
C     18.6104      0.2955     -4.7578
H     -0.9380      3.8607      7.9166
H      6.4015     -1.7972     12.6461
H     10.2192      5.3255      0.1336
C     14.3024     10.2190      1.1643
H      1.8811      3.1866      9.4481
H     10.3544      9.4339      3.2987
282

C      6.9782     -3.7907     13.4978
N     11.0265     11.0996      1.2124
C      4.0199      1.5572      7.3410
C      2.2799      2.5686     15.3436
H      1.6564      0.8140     10.2533
C      7.5105      4.9642     15.4490
H     10.0484      6.8764      2.2434
C      7.9276      3.5513     15.7913
C     16.4588      4.3079     -7.4917
C      6.1936     -3.1580     11.3019
C      3.2861      7.2664      6.7925
C     18.9141      1.7629     -8.9288
C      6.2483      9.5071      8.7518
C     13.5894      8.8272      1.0189
C      9.0928     12.1712     -0.2647
C      8.3981     13.8399      1.2445
N      0.4588      2.6353      6.0876
H      5.3943     -4.0416     11.1641
C     13.7608      6.4402      0.7042
O     -1.0427      2.9648     14.0635
C      3.4650      4.2271      7.3294
H     12.4893      7.5940     -2.5414
H      7.1812     13.6077      1.6741
C     15.7816      6.5561     -8.2055
C      3.4305     -2.4090     16.4679
H     -2.8146      3.2673      6.3120
C      3.8154     -3.7205     16.0991
H      6.5888      7.6032      9.5811
H      6.1072     -2.1236     10.9060
H      4.3761      5.6880      8.8232
H     -0.8089      5.5838      6.8372
C      3.2535      2.7989      7.8421
H      8.7083     11.0650     -2.1002
H     19.7400      1.1033     -8.7406
C      8.0954     12.3894      8.3955
C      9.2009     10.8762     -1.1241
C      6.7356      5.7494      9.7570
H      2.4180     12.8932      8.9110
H     15.0269      5.4702     -3.4317
C      6.6115      3.0361     15.9244
H      5.0397      4.1232      9.0268
H      4.3018     11.3916      9.4583
H     16.3603      6.8597     -4.1644
C      4.0655     -2.0486     17.6975
C     10.2358      8.6225      5.0125
O      1.8114      8.6498      5.1759
C     11.5600      8.1629     -5.8937
C      8.7882      7.8739     -0.6070
C      7.4320     -5.3143     13.0138
C      6.4220      6.7128     12.1081
H      6.2817      3.5811     12.2475
H      4.2493     -2.8607     14.2122
H      1.5143     -1.6662     18.0748
H      8.2682      8.2969      8.6061
C      8.3504      2.7411      8.6431
H      1.0851      1.3027     14.4808
C      7.1901      5.7629     11.0711
C      7.9427      6.0244     16.1845
H      8.7011      7.9820     15.4569
C     -1.0316      6.7212      5.2099
H      4.0106      8.7959      8.5641
H      3.2382     -1.7581     15.3924
H     16.9897      6.0709    -10.2498
H      2.3977      4.4823      9.8840
C      9.7673     11.7561      6.9399
C      7.0880      4.8559      8.4187
C      3.0863      7.8571      5.3458
C      9.4252     14.5274      1.3235
C      5.6668      4.4275     12.3992
C      4.5035     -3.7905     14.6824
H      9.2494      7.9631      5.3314
H      8.9801      9.0422      3.3967
H      4.2053      0.5505     10.1937
H      6.7933      9.6680      9.6668
H     18.4369      0.8721     -7.2240
C     -0.3829      3.2411      8.0500
H      8.3284     -3.1189     15.2601
C     13.5223      8.4659     -0.5917
C      1.9157      2.0706      8.0844
H     10.7504      6.1700     -1.9184
H     10.4556      9.7164     -2.0914
C     12.3352      6.5026      1.5426
H      5.6106      7.2494     11.5941
H     -1.4648      2.5664      5.8674
H      8.4796      7.5412      6.8969
C     10.2582      7.3441     -0.0536
O     15.5659     10.3500      1.1771
C      6.7861      8.7236      7.6596
C      4.1263      8.4612      7.5039
C      3.6562      1.1173      9.5324
C      3.5046      0.4410     18.0782
H      7.5064     -2.0206     14.3244
H     20.0382      0.4877     -5.8787
H     -2.3504      5.5249      5.9616
H      5.5380      6.9314      8.2961
C      4.2398      3.5681     16.2023
C     10.6288      8.5935      0.7041
C     11.3215      6.8373     -1.1750
H      8.5644      2.0264      9.4613
C     18.6350      2.5369     -7.6134
H      1.5920     11.4785      9.7404
H      5.0107     -0.6237     18.9639
C      2.2404     11.7980      8.8001
C      4.5559     11.1330      7.4575
C     -1.6680      4.9652      3.6872
C      3.9568      9.8129      6.7000
C      2.8568      3.7244     15.8138
C      5.8163      6.7708      9.3027
H      1.7854     11.5044      7.8912
H     15.7384      8.0496      0.8696
H     13.0424     11.7959      1.7735
H      8.4095      6.2815     17.8153
H      9.8074     12.7660     -0.1645
H     14.9915      3.0227    -12.3517
O     18.3833      6.8912     -6.5030
C      0.6792      8.0711      4.6433
C     10.0490      8.6794      3.4309
C     10.7316      7.3802      2.9673
H      9.0286     10.5901      8.4366
H      8.4580      3.7504     16.8023
C     10.3575      8.3274     -5.0995
H     11.0129     11.2633     -1.5265
H      5.2487      4.9620     10.3573
C      2.7440      1.0216     15.3022
C     12.6606      8.6641    -10.7477
O      4.7620      4.5267     11.1948
O      6.9371      3.4692     10.4696
C      0.0260      3.3079     14.5171
C      0.2486      4.0267      4.0217
C      7.0164     10.7163      6.9699
H      8.5130     10.1654     -0.5462
H      2.8495     10.1478      6.6930
H     12.2016      9.0770     -9.2517
H     11.8275      8.9293     -1.5416
O     13.1789     10.1095     -7.3874
C      5.9193     10.9036      8.1444
C     13.4879      7.0917     -6.0129
C     14.6172      7.6258      1.1107
H     15.5649      8.4031     -9.9794
C     13.6835      7.6160     -9.7400
H      8.1571     13.3483      7.8560
C      2.1093     -0.0719     17.5415
C      0.7327      2.6769      7.5262
C     10.8523     11.0352      6.3738
C     -2.1696      3.2258      5.2419
C      4.3530     -0.7550     18.0732
C      2.5198      3.2978     10.3138
C      0.9548      2.3584     14.9678
C     11.6558      7.7346      1.5759
C      3.7557     11.6330      8.6420
N      1.2414     -0.7625     18.3334
C      2.5411      0.3413     13.8391
C      9.6339      6.3968      0.8460
H     18.6118      9.2832     -7.2559
C     -2.2552      4.3376      2.5173
C     10.2076      7.9869     -3.6760
H      9.0855      3.3688      8.4879
H      2.8459      0.0731      7.2395
H      7.6696      9.4019      5.8345
C     10.8994     10.1337      0.3824
H      4.9991      7.3230     10.1223
H     14.8410      6.9997     -3.5244
H     12.9898      9.6505    -10.1408
H     14.8702      7.7635     -2.0525
H      3.1119     -0.5676     14.0036
H     -0.5530      2.5053      8.8927
C     14.9690      7.5943    -10.4338
H      1.5194      0.4816     13.7697
C     14.4699      8.7430     -1.4420
C      6.4185     -2.8571     12.5774
H      7.1492      4.7743     11.7284
C     10.4956     10.4210     -1.0022
H      0.3217     -0.7173     18.1864
C     17.0277      8.4972     -8.5588
C      7.7115      7.3978     15.5645
C      8.0196     -2.9483     14.2326
C      5.8731     -4.1811     14.7075
C     17.2061      6.2259     -6.4364
C     15.0112      5.2855    -10.1875
C      6.1315      5.6394     13.1527
C     18.1768      7.7072     -8.9084
C      7.9738      6.8245     14.1159
H     15.2873      9.0347     -0.5084
C      4.3976      5.1182      7.7957
O     13.7996     11.3855      1.3319
C     14.7508      5.3377    -12.0037
H      9.7658      9.2293     -5.4526
C     18.9247      7.3073     -7.6824
H      0.2286      1.5963      5.5961
H     10.3534     14.7614      0.8822
H     -3.0588      5.0710      2.4017
C      7.1843      5.6792     14.2112
H     -0.4751      3.7064      3.2446
O     20.2408      7.5143     -7.9276
H      7.4900      8.1933     -2.0886
H      9.9316      8.4428      1.6149
H     13.9993      3.8825    -13.7831
H     17.8897      5.7474     -8.2991
C     12.1557      8.0091     -1.5098
H      5.9613      3.4237      7.5796
C     15.8392      6.4990     -9.8930
C     -1.1250      4.2228      4.9629
C      0.4616      6.6621      5.5202
H      5.3940      8.9590      9.0680
H      2.2299      1.6084      6.1881
C     14.3303      5.8573     -8.0596
H      0.9869     -0.0065     15.7844
H     10.0291      6.9840     -3.4682
C      7.7245      7.5201      7.7440
C      4.3418      0.5340      8.3294
C     19.2272      7.9146    -10.1665
C     10.2507     10.0259      5.4656
C     13.0012      6.3993    -10.0187
C     -1.2967      6.5368      3.8263
H     10.0746     12.8318      7.3820
H     15.7865      3.9629    -13.2218
H      3.9789     -4.5819     14.0872
H      4.7849      4.2390     13.1582
H     -2.8520      2.5769      4.7088
C      2.1484      1.1920      9.3654
H     11.7503     11.4172      5.8633
C     13.7683      5.2733     -9.3889
C      5.4046      3.7228     15.4714
H     14.2361      4.7821     -4.8481
H      5.0462      7.9878      7.1988
C      7.3147      3.5238      9.4330
H     11.2195     12.0202      0.6461
H      6.7677     11.4640      6.0025
C     15.3749      6.3999     -4.1499
C     -1.3217      5.4543      5.9364
C      1.9404      0.3670     16.3413
C     14.7695      4.4901     -7.2711
C     14.8965      6.4031     -5.5471
C     14.7695      3.9882    -12.8204
H     11.7457      5.6479      1.5510
H      4.0132      0.8469     15.4134
H      9.3746      9.7888     -3.5621
H      2.6515      1.4092     13.5698
H      7.6157      6.3903      7.9508
H     10.2795     10.7479      4.4848
C      8.1343     12.7775      0.4338
H     17.9209      1.6856     -9.0687
C     12.4535      9.0433     -8.0494
C      9.4775      8.8822     -2.9140
H      9.0619     -3.2381     13.9967
C      8.5353     11.1787      7.6512
H     -2.4059      3.2571      2.8024
H      9.1628      9.8592      5.8298
C     12.6580      7.7122     -5.1993
C      1.2324      3.2205      5.0913
O      8.6438      5.7784     17.1887
C     11.6047      8.1091     -7.3323
C     19.2729      1.3978     -5.3814
C     18.3104      1.7014     -6.4470
C      3.0362      0.8919      6.4531
H      4.4556      3.0845     10.2308
H      8.4792     12.5811      9.4607
H     12.4254     10.1857     -6.7282
H      3.7385      1.1079     17.3392
H     12.1287      7.3290     -4.1553
C     14.7961      4.9705     -5.7659
H      0.1715      4.6479     14.4755
C     16.9645      5.6780     -7.8945
C      3.6323      2.7227      9.5127
H      7.1212     12.2606      0.5203
H     13.7160      6.2997     -0.4216
C      8.4567      8.4091     -1.8478
H      2.3750      2.9280     11.4296
H      7.4102      4.6924      7.2426
H     11.9058      5.9322     -0.7126
C     17.1719      3.1346     -8.1113
C     17.4924      9.7291     -7.5791
C      6.4899     12.2695      8.7300
C      6.8734      9.2916      6.4585
C      5.6033      4.4133      8.1313
C     18.6492      0.2613     -4.6840
H     -1.2492      3.5715      7.5608
H      7.0705     -1.9535     12.4947
H      9.6333      5.5335     -0.0638
C     14.3699     10.2177      1.2262
H      1.5972      3.0818      9.8228
H     10.4082      9.7069      3.0608
