285

C     20.1191     -4.1100     14.0693
N     -2.1901     10.2944    -11.4946
C      3.7370      1.4190      6.8716
C      2.2917      2.3495    -10.4331
H      0.8379      1.4289      8.8827
C      7.7547      4.8763      2.8515
H      9.7155     -6.1231      2.7006
C      7.3606      3.3579      3.3425
C      3.4473      4.2678     -7.2858
C     19.4758     -3.0788     11.8107
C     16.1104     -5.6053     19.5192
C      5.6921      2.0639      4.0580
C      6.1193     -3.3087      8.9103
C     13.6168     -4.2631     13.3147
C     -3.4386     12.0527    -13.4942
C     -4.6420     13.7518    -12.9098
N      0.6080      2.7412     -6.7994
H     18.7865     -3.7184     11.5286
C      0.8428      6.4760    -12.3578
O     -0.4977      2.3938    -12.6590
C      3.3828      4.2084     -5.7972
H     12.9287     -5.5460      9.9254
H     -5.6783     14.0325    -12.3737
C     15.7910     -6.5414     17.2137
C     16.9160     -2.3043     16.3916
H     11.2799    -10.0354      5.9275
C     17.2143     -3.6040     16.0553
H      4.5652      6.8011     -3.6030
H     18.7597     -2.2545     11.4520
H      4.1418      5.5508     -4.4603
H     12.4286     -8.1604      6.4155
H      6.0917      1.2662      9.3293
C      3.2200      2.7099      7.5155
H     -3.3652     11.0175    -15.0957
H      6.4018      1.2249      3.9747
C      7.8075     -0.5167      8.7578
C     -3.2299     10.8934    -14.0623
C      6.1301      5.9114     -2.7475
H      1.7564     -0.2401      8.1664
H      2.1275      5.4917     -3.5095
C      6.0926      3.3266      3.3086
H      5.1203      3.6503     -4.0296
H      3.1622     -1.3012      9.6934
H      2.8276      7.3262     -3.6408
C     17.5238     -1.9458     17.6700
C     10.2569     -4.4844      5.0113
O      2.0074      8.7630     -8.1882
C     11.4299     -4.9442      7.2239
C      8.7573     -5.1711     11.9106
C     20.7243     -5.4333     13.0343
C      6.5278      6.6677     -0.4292
H      0.8495     -1.7063     -8.3240
H      7.3208     -5.8716      9.4566
C      7.8512      2.6378     -3.7585
H      0.6746      1.2586    -11.1197
C      6.8985      5.9411     -1.7095
C      8.2167      5.7386      3.9345
H      8.2530      7.4064      2.5043
C     11.8573     -6.4028      5.1002
H     16.5178     -4.7151     21.3903
H     16.8837     -6.4998     15.5007
H      2.9851      4.2538      9.6783
H      2.7524      5.3493    -12.8619
C      9.7439     -1.1959      6.9165
C      6.6921      4.8078     -3.6405
C     15.9096     -5.1548     17.8231
C     -3.6118     14.6598    -12.7082
C      5.5647      4.4191      0.3767
C     17.9414     -3.6409     14.9357
H      9.3146     -5.1899      5.1916
H      8.4228      7.4808      4.3076
H      3.1647      0.9332     10.6337
H      6.4431     -3.5448     10.0556
H     18.5154     -0.2909     18.5474
C     -0.4169      3.1806     -4.8659
H     21.4006     -2.8343     15.2855
C     13.3819     -4.5921     11.7590
C      1.9540      2.6135      8.0931
H     10.7374     -6.6030     10.4380
H     -1.7904      9.8834    -15.2008
C     -0.5313      6.1050    -11.3526
H      5.5884      7.1913     -0.4183
H     10.8022    -10.8144      4.6493
H      7.9406     -6.0757      8.1039
C     10.2253     -5.6629     12.1788
O     15.6401     -2.7874     14.0506
C      7.2797     -3.9684      8.2279
C     16.8701     -4.7802     20.2987
C      3.2501      1.2083      9.5503
C      3.1256      0.4547     -8.2031
H     21.7954     -2.5851     13.7883
H     10.5913     -7.5106      6.3224
H      4.7148      6.5752     -1.6643
C      4.0144      3.8207     -9.5533
C     -2.0455      8.0935    -12.5281
C     11.2527     -6.2069     11.2989
H      8.2610      2.0164     -3.1093
C      5.1510      2.4490      5.2594
H      1.5395     -2.0245      8.5097
H     18.1214     -0.2615     16.7153
C      2.1637     -1.2380      7.9596
C      4.4871     -2.0354      7.7479
C     10.6663     -7.9954      3.5253
C     16.6854     -3.2338     19.8523
C      2.6562      3.8002    -10.0737
C      5.1648      6.9262     -2.8908
H      1.9889     -1.3973      6.8952
H     15.6099     -5.3975     13.1752
H     13.6930     -1.4298     14.3317
H     20.4853     -6.5670     18.7360
H     -2.5521     12.6164    -12.9772
O     18.4929     -6.0686     19.3046
C      0.7541      8.0867     -8.4341
H      4.5158     -1.2650      6.9470
C     10.1710     -4.2100      3.5083
C     10.6880     -5.5745      3.0046
H      8.3298     -2.4151      8.3330
H      8.3186      2.5129      3.3692
C     10.0636     -4.9315      7.6553
H     -4.0671     15.6424    -12.0379
H      1.8970      3.3755     -8.8772
H     -1.1536     10.9218    -13.8135
H      4.0346      4.5672     -0.0639
C      2.9051      1.0124    -10.7205
C     -0.1425      8.4487    -11.0953
O      4.7652      5.2091     -0.3801
O      7.6276      3.5832     -1.8964
C     -0.2955      3.0503    -11.5990
C      0.1339      3.9914     -8.9501
C      6.9326     -2.0557      7.1878
H     -3.9807     10.1093    -13.8198
H     15.7350     -2.9194     19.6660
H     11.8613     -4.3022     10.8011
O      0.7626      9.7637     -6.7850
C      5.9635     -1.8657      8.2492
C     13.6380     -5.8977      6.7144
C     14.6244     -5.3484     13.6952
H     15.4368     -4.3522     15.2624
C      0.5797      7.5908    -10.0336
H      8.2401      0.4787      8.7516
C      2.0940     -0.2801     -8.7369
C      0.7576      2.8854     -5.4194
C     10.5239     -2.0481      6.0565
C     10.6056     -9.9197      5.0553
C     18.2399     -0.7476     17.6192
C      3.4999      3.6385     10.3019
C      0.4836      2.2288    -10.6397
C     -1.3684      7.4604    -11.4418
C      3.5936     -1.1494      8.5815
N      1.1080     -0.8401     -7.8536
C      2.3436      0.7527    -12.1936
C      9.8388      6.3495      0.4425
H     18.5178     -3.6103     18.8715
C     10.4206     -8.8075      2.4763
C      9.6210     -5.2338      8.9989
H      8.3624      2.9523     -4.5921
H      1.9503      0.5607     -6.3164
H      7.3868     -3.8452      5.6820
C     -2.0353      9.5193    -12.4784
H      5.5097      7.7917     -3.1970
H      1.1860      6.9877     -3.1921
H     -0.7957      9.0611    -10.8134
H     15.1037     -4.3755      9.9119
H      2.1576     -0.4109    -12.0989
H     -0.3574      2.9215    -13.3570
H     -0.5740      3.4399     -3.6693
C     14.7859     -5.2926     15.1468
H      1.2284      1.0561    -12.5835
C     14.6091     -4.0618     11.1528
C     19.8515     -2.9657     13.0554
H      7.9223      5.5828     -1.5853
C     -1.9755     10.1875    -14.1028
H      0.2305     -0.2890     -7.3932
C     17.2722     -4.4852     17.2263
C      7.9636      7.3611      3.4526
C     21.4789     -3.4523     14.3570
C     19.2081     -4.2767     15.0032
C     17.3358     -6.7413     19.4638
C      2.0241      5.1085    -10.5739
C      6.3794      5.7827      0.7276
C     18.4921     -5.2669     17.1597
C      8.6481      6.7250      1.0603
H     15.0900     -3.2089     11.8859
C      4.6497      5.2043     -5.1973
O     13.4340     -1.9565     13.6207
C      1.8297      5.2037    -12.1276
H      9.3779     -5.5980      6.9937
C     19.0921     -5.5543     18.2503
H      0.5636      1.8354     -7.3953
H     -3.0582     15.0329    -13.8666
H     10.0125     -8.5099      1.5599
C      7.6066      5.7203      1.8074
H     -0.1204      3.0714     -9.2876
O     20.4354     -5.5282     18.8356
H      7.4081     -3.8029     10.8301
H     22.1265     -4.3173     14.4153
H      1.3684      4.2881    -13.7482
H      5.0626      5.2067     -8.0099
C     12.3567     -5.1607     10.9497
H      5.9884      3.4476     -5.6045
C     15.7914     -6.5256     15.7123
C     11.3486     -8.6009      4.6411
C     13.3566     -6.0025      5.2268
H      5.2939     -3.7790      8.4117
H      3.2745      2.2991     -8.2815
C      1.5527      5.9010     -8.3169
H      2.0039     -1.3353    -10.5999
H      9.6092     -6.3414      9.2741
C      7.2415     -5.4479      8.4191
C      4.2616      0.2251      8.5273
C      6.6553      7.8231      3.2504
C      9.6396     -3.1718      5.6162
C     -0.1395      6.2821    -10.0049
C     11.4280     -6.6424      3.6038
H     10.2834     -0.0546      7.2692
H      2.2395      3.1558    -12.6016
H     17.5907     -4.3180     14.2177
H      4.9860      4.1672      1.5569
H      9.5846    -10.0901      5.1664
C      1.9585      1.3151      8.8163
H     11.4685     -1.7791      5.7240
C      0.9034      5.1095     -9.5406
C      5.1711      4.4353     -9.9693
H      0.9404      4.9437     -5.1760
H     17.6731     -5.3355     20.6201
C      7.5904      3.9315     -3.0598
H     -2.1234     11.4236    -11.5613
H      6.6752     -1.6217      6.2832
C      2.1265      6.6913     -4.0191
C     11.6598     -7.6979      5.7862
C      2.2676     -0.1668    -10.0579
C      2.0425      4.7133     -7.2619
C      2.0557      6.6679     -5.5183
C      1.3794      4.0062    -12.7827
H     -0.6696      5.1671    -11.6732
H      4.1929      0.7572    -11.0221
H      8.7971     -3.4203      9.4619
H      3.1088      1.0828    -12.7210
H      6.3083     -6.0169      7.9949
H      7.0611      2.1407     -4.1893
H      8.7164     -2.7558      5.3244
C     -4.6927     12.4719    -13.3516
H      4.7605      1.8221      3.8446
C     -0.2632      9.2599     -7.7968
C      9.1974     -4.2374      9.8146
H      9.0885     -4.3724      3.1440
C      8.2720     -1.5912      7.7260
H     10.0507     -9.8155      2.2231
H      8.9549     -3.6110      6.4065
C     12.6995     -5.1282      7.5083
C      1.0724      3.6024     -7.7708
O      8.9689      5.4860      4.7309
C     11.3510     -5.0243      5.6317
C      6.1000      0.8916      7.1689
C      5.0837      1.8908      6.4701
C      2.6771      1.1174     -6.9790
H      7.0300      1.3380      7.2098
H      4.8963      2.4846      9.4756
H      8.6074     -0.7309      9.5224
H      0.3470     10.3603     -6.1237
H      4.1349      0.9410     -8.8016
H     12.7945     -5.3118      8.4104
C      2.0832      5.0210     -5.7703
H     -1.0073      3.6299    -11.0627
C      4.0690      5.4555     -7.8098
C      3.9228      2.6684      9.2330
H     -5.7280     11.9525    -14.0232
H      0.7408      6.2035    -13.5837
C      8.3266     -4.6592     10.7966
H      4.5194      3.6865     10.9463
H      7.4292      5.3253     -4.5282
H     11.9787     -7.1453     11.6621
C      3.9591      3.2290     -8.1378
C     17.5822     -3.3187     18.4461
C      6.3971     -0.6214      9.0594
C      7.1699     -3.4217      6.8120
C      5.6269      4.2256     -4.6929
C      5.5777      0.4027      8.4668
H     -1.3084      2.9800     -5.5434
H     20.6181     -2.1736     13.5666
H      6.1383     -0.8831      9.9967
H     10.7602      5.8816      0.4551
C     14.4155     -2.9607     13.6796
H      2.8191      3.2979     11.0967
H     10.6958     -3.3243      3.2938
