284

C      7.0271      8.9272      0.7139
N     -2.2744     10.4181      1.2294
C      3.7455      1.4679      7.1130
C      2.2217      2.3008      2.6181
H      1.0131      1.1051      9.4827
C      7.7846      5.1785      2.4233
H     -3.1718      7.0385      2.5018
C      7.5752      3.9285      3.2432
C      3.5362      4.1580      5.3716
C      6.3457     10.4267     -1.1340
C      3.2920      7.4652      6.5389
C      6.0988      1.8756      4.1261
C     -6.8915      9.3053      8.7333
C      0.7284      8.9315      0.7724
C     -3.1227     12.0835     -0.6896
C     -4.4069     13.3286      1.0647
N      0.3922      2.5169      6.1996
C      0.9655      6.2880      0.6212
O     -1.1652      2.2455      1.1464
C      3.2520      4.1580      6.9159
H      0.3357      6.7990     -2.0469
H     -5.4560     13.6720      1.4817
C      2.6843      6.2298      4.4073
C      4.2943     10.8447      3.0020
H     -1.4975      2.3488      5.5373
H     -7.4298      5.7701     15.2721
C      3.9930      9.4736      3.0153
H     -7.9298      7.8648      9.1816
H      6.7475     11.5931     -1.0019
H      2.7063      4.5460      9.2645
H     -0.8023      5.2398      6.9413
H      5.6397      1.1642      9.7821
C      3.1447      2.7849      7.6964
H      7.2179      2.0556      4.3592
O      1.6400     10.8738      1.9787
C     -5.2982     12.2320      9.1687
C     -3.4096     10.9024     -1.4642
C     -7.0123      5.9012     10.0366
H    -10.9779     12.9208      8.3449
H     -9.0448      5.6299      8.2627
C      6.3185      3.0069      3.1245
H     -7.0508      3.5239      7.1994
H      5.4502     10.7379     -1.8312
H     -8.7854     11.7339      9.3366
H      2.0373      7.5451      9.3168
C      4.4196     11.0370      4.3978
C     -2.8534      8.9080      5.1046
O      1.9416      8.6446      4.7292
C     -1.5318      7.8723      7.1532
C     -4.4245      7.8391     11.7719
C      7.5882      7.6159     -0.0515
C     -6.6120      6.7367     12.3712
H      5.2607      3.3219      1.4606
H      4.4455      9.3206      1.2633
H      1.5884     -2.1106      3.8384
H     -6.7903      6.3508      9.0067
C     -5.2460      2.4814      9.0757
H      0.6992      0.9337      2.4919
C     -5.7828      6.3122     11.0249
C      8.1042      6.1901      3.2951
C     -1.1617      6.9855      5.1142
H      3.1321      8.7791      8.1613
H      4.7512     11.3813      2.2687
H      3.6860      6.1355      2.3545
H      2.8566      5.0837      0.6828
C     -3.1415     11.5537      7.9038
C     -6.6828      4.2900      9.1765
C      2.8163      7.8228      5.0841
C     -3.6642     14.5337      0.7786
C     -7.5078      4.2767     12.3496
C      4.4299      8.6347      1.9706
H     -3.5729      8.3262      5.2785
H      8.2783      7.8935      3.9280
H      3.7295      1.2986     10.5715
H      6.3312     12.0895      4.6012
C     -0.5184      3.4675      8.2409
H      7.9304     11.0925      0.3601
C      0.3579      8.7377     -0.7375
C      1.8001      2.3199      8.0846
H     -1.7290      5.7011     -1.4490
H     -1.8529      9.0105     -1.5767
C     -0.4492      6.3978      1.3623
H     -7.3040      7.8112     12.4882
H     -2.1225      2.9535      4.2367
H      7.9478      6.8592      6.4313
C     -2.8066      7.4111     -0.4423
O      2.9427     10.0093      0.4219
C     -6.3030      8.3309      7.8010
C      3.8029      8.6043      7.4082
C      3.4427      1.3613      9.4404
C      2.6333      0.8971      4.9941
H      8.3075     10.0009      2.3549
H     -1.4761     11.1463      0.8482
H      6.5530      0.6031      6.8359
H     -2.2643      5.2373      6.3675
C      4.0607      3.6589      3.2455
C     -2.6707      8.1983      0.7536
C     -1.4059      6.8234     -1.1051
H     -4.3886      2.0241      9.6607
C      5.2220      2.4355      5.3083
H    -10.5995     11.6844      9.8938
H      4.8781     12.8708      3.6315
C    -10.6255     11.9901      8.7935
C     -8.3542     11.1860      7.5393
C     -1.9540      5.1775      3.5335
C      4.0563      9.8914      6.6345
C      2.5982      3.5416      2.8703
C     -8.1033      6.9505      9.9795
H    -10.7922     11.0306      8.1474
H      2.7993      8.1136      0.7165
H      9.0619      6.6923      4.9088
H     -2.1497     12.6559     -0.5121
H      1.6618      4.5260     -0.9043
O      5.3804      7.2718      6.2431
C      0.7389      8.3678      4.3625
H     -7.8811     11.7934      6.7360
C     -2.6016      9.0844      3.5693
C     -2.1802      7.5570      2.8219
H     -4.0801     10.1477      8.1608
H      8.4111      4.1380      4.0104
C     -2.6725      8.2032      7.7828
H     -3.9732     15.1431      1.6525
H     -1.5222     10.6020     -0.7929
H     -9.3031      4.4429     11.9117
C      3.3694      1.3343      2.4128
C     -0.2623      8.8442      1.8991
O     -8.8285      4.3526     12.7410
O     -5.3140      3.9629     10.8272
C     -0.0361      2.8354      1.5742
C     -0.1351      4.1169      4.1278
C     -5.7696     10.9027      7.2473
H     -4.3769     10.4717     -1.6501
H      3.0544      9.9514      6.3101
H     -0.4461     10.2440      4.5411
H     -0.6259      8.1667     -2.7936
O      0.4628      9.8602      6.2329
C     -7.1040     10.9290      8.2568
C      0.6073      7.1557      6.6172
C      1.7289      7.6281      0.8812
H      2.3970      8.3151      3.0156
C      0.6137      7.9050      2.8829
H     -5.2115     13.1975      8.4313
C      2.3601     -0.1878      4.0806
C      0.4578      2.6938      7.6723
C     -2.7127     10.8314      6.8482
C     -2.2104      3.1498      5.2129
C      5.1828     12.2608      4.5690
C      3.1441      3.9722      9.8858
C      0.9942      1.8598      2.0048
C     -1.3746      7.7802      1.5538
C     -9.0706     12.1133      8.3451
N      1.7571     -1.3272      4.6157
C      3.4736      1.5099      0.9097
O     -7.6451      6.1045     14.3509
C     -3.2530      6.0349     13.0162
H     -6.7293      9.5926      6.2899
C     -2.4987      4.5578      2.4491
C     -3.2635      7.5548      8.8921
H     -4.8026      2.7089      7.9917
H      1.8603      0.3617      6.9889
H     -5.0290      9.2634      5.9771
C     -2.6549      9.5901      0.3597
H     -8.7254      7.1283     10.8779
H      1.3843      6.0273      9.1768
H     -0.5956      9.6495      2.4167
H      1.9251      8.0561     -1.8491
H      3.9259      2.4995      0.6900
H     -1.9646      2.7319      1.5255
H     -0.2758      3.5447      9.2855
C      1.9797      7.5609      2.3893
H      4.0646      0.5706      0.7325
C      1.5472      9.0278     -1.2146
C      6.0897      9.4928     -0.3162
H     -5.1141      5.4047     11.2354
C     -2.2243      9.8226     -1.0635
H      1.4254     -1.0435      5.5420
C      4.2297      8.5475      4.3561
C      7.8391      7.5220      2.8666
C      7.8349     10.1235      1.2720
C      6.0605      8.5160      1.8519
C      4.2374      6.3718      6.3977
C      1.8008      4.6760      2.5742
C     -6.7321      5.6272     13.2239
C      5.6147      7.5212      3.8794
C     -4.5491      6.4393     13.3767
H      2.3065      9.4267     -1.0015
C     -8.5776      5.1784      7.3751
C      1.7420      4.9691      1.1832
H     -3.4012      8.6379      6.8539
C      6.1794      7.3701      5.2260
H      0.0768      1.4945      5.9187
H     -3.0469     14.8326     -0.1894
H     -2.8414      5.1341      1.7032
C     -5.4048      5.3709     13.9144
H      0.0879      3.0533      3.6070
O      7.6749      7.2806      5.5355
H      6.9052     10.7981      1.5817
H      2.5659      3.4158      0.2849
H      4.6641      5.9187      4.4104
C     -0.3918      7.5565     -1.7907
H     -6.2528      5.1019      7.4859
C      2.7381      6.2379      2.7767
C     -1.4344      4.4907      4.6385
C      0.4790      7.0506      5.1616
H     -7.8589      9.4212      9.2266
H      3.3569      1.5301      4.6497
C      1.2122      5.8177      4.7616
H      1.9411     -0.1025      1.8200
H      3.3726     -1.0117      2.4999
H     -3.4969      6.4301      8.8066
C     -6.2745      6.9176      8.1453
C      4.0860      0.7330      8.3918
C      6.4309      7.6651      2.7800
C     -3.0333     10.3773      5.4299
C     -0.0890      6.5045      2.9274
C     -1.4991      6.6352      3.7423
H     -2.8052     12.4217      8.5325
H      0.5680      3.6122     -0.1677
H      4.0419      7.7658      1.8393
H     -7.0049      3.4102     12.6525
H     -3.0676      3.4054      5.8558
C      1.9056      1.4001      9.0387
H     -1.3564     10.8273      6.9854
C      0.6475      5.2852      3.5064
C      5.1920      3.6163      2.4610
H      1.4026      4.6781      7.7742
H      4.6001      8.0021      8.0154
C     -5.4326      3.7580      9.6974
H     -2.1387      9.9442      2.1297
H     -6.2932     11.5585      6.3581
C      2.2758      6.6912      8.8982
C     -1.2642      5.6609      5.8801
C      2.7369     -0.0166      2.6356
C      0.8498      4.9112      5.9245
C      2.0246      6.5958      7.3210
C      1.5439      3.9998      0.1414
H     -1.1071      5.4287      1.2548
H      4.3080      1.5603      3.0294
H     -4.4494      9.4635      9.6895
H      2.5056      1.5358      0.3580
H     -5.2438      6.3700      8.3472
H     -6.2548      2.1599      9.2170
H     -2.2734     10.8824      4.7962
C     -4.3795     12.3298      0.1128
H      5.6599      1.0667      3.5883
C     -0.3273      9.4566      5.1081
C     -4.2581      8.2553      9.5233
H     -7.4924      5.0189     11.4161
H     -3.4219      9.7290      3.2505
C     -4.6361     11.2154      8.2302
H     -2.8694      3.3415      2.7766
H     -3.9244     11.0463      5.2848
C     -0.1139      7.6279      7.5661
C      0.8069      3.6450      5.3669
O      8.9789      5.9455      4.3340
C     -1.5235      8.2002      5.7084
C      6.0309      1.2372      7.4960
C      5.0177      1.4777      6.3219
C      2.5537      0.9466      6.3346
H      6.5208      2.3831      7.6256
H      4.8915      3.1632      9.3276
H     -4.6716     12.0501     10.1052
H     -0.2202      9.8883      7.1037
H      0.2608      7.3515      8.4332
C      1.9120      5.1032      7.0130
H     -0.3535      3.9763      1.6221
C      3.8222      5.5843      4.9065
C      3.7968      2.8415      9.1273
H     -5.2833     12.5285     -0.6531
H      0.7574      5.9687     -0.3980
C     -5.1383      7.6379     10.5210
H      2.2235      3.5164     10.3410
H     -0.9422      6.2247     -0.4630
C      4.2882      3.2207      4.6353
C      4.5838      9.7654      5.1776
C     -6.9267     12.2260      9.2966
C     -5.7204      9.3810      6.7277
C     -7.1211      4.4320      7.7943
C      5.5769      0.6521      8.7860
H     -1.5634      3.7465      7.7240
H     -4.3547      8.8606     11.9045
H     -7.3289     12.0668     10.3471
H     -2.6666      5.1463     13.3111
C      1.8835     10.0099      1.1415
