289

C      7.2522    -16.9994     13.9969
N     -1.6699     10.4775      1.3953
C      4.0399    -11.2895     20.2450
C      2.3216      2.4361      2.1439
H      1.4231      1.2164     23.0163
C      7.8349      5.1067      2.6817
H     -3.0425      6.7426      2.7075
C      7.7719      3.5849      2.9856
C      3.3655     -8.7294     18.6290
C      6.8691    -15.6693     11.9605
C      3.3430     -5.5684     19.8333
C      6.1026      1.9393      3.9197
C      6.3949     -3.2282     21.6310
C      0.7975      8.8198     13.3816
C     -3.5257     12.0631     -0.2957
C     -4.5285     14.0734      0.9225
N      0.7340      2.4678     18.9558
H      7.4397    -16.4585     11.8026
C      1.0022      6.4033      0.6319
O     -0.8436      2.8109      0.7630
C      3.1918     -8.7201     20.1430
H      0.3718      7.1466     10.1109
H     -5.4368     14.4638      1.6058
C      2.9445     -6.4762     17.5121
C      3.4854    -15.3869     16.1202
H     -1.6409      3.1052     19.6627
H      4.4337      5.7317      0.9543
C      3.7954    -16.7373     16.1066
H      5.0512      7.0469     -4.0326
H      6.4022    -15.0062     11.2510
H      3.8717      5.1871     -4.1839
H     -1.1089      4.9904     19.7698
H      5.8516      1.3202     22.1801
C      3.4667    -10.0010     21.0157
H     -2.6078     11.9081     -2.3212
H      6.6658      1.3112      4.3934
C      7.8292     -0.5245     21.8440
C     -3.0936     11.2896     -1.3795
C      6.0019      5.4820     -2.8252
H      1.4594     -0.9067     22.3143
H      1.6263      5.8861      9.4427
C      6.3895      3.0760      2.9743
H      5.6281      3.3349     -4.9023
H      3.6342     -1.0902     22.6548
H      3.1314      6.7456      9.1665
C      3.8023    -15.0779     17.3713
C     -2.7569      8.5275      5.0160
O      2.0129      8.7566     17.9947
C     -1.3179      8.0377      7.1771
C     -3.9771      7.7188     11.9186
C      7.8803    -18.4023     12.9133
C      6.7270      6.8615     -0.6968
H      5.3965      4.9568      2.9790
H      6.1455      3.9004     -0.2859
H      4.3068    -16.7597     13.7489
H      0.6812    -12.9000     19.1015
H      8.3674     -5.8708     21.9756
C      7.5308      2.5449     -3.9170
H      0.2414      1.4130      1.6933
C      6.9992      5.9709     -1.7957
C      8.2860      5.9541      3.6627
H      8.4638      8.0266      2.6248
C     -1.0785      6.6478     18.1550
H      3.5545     -4.3300     21.7357
H      3.1393    -15.0507     15.1570
H      4.0609      6.4617      2.4282
H      3.0807      5.0651     23.0444
H      3.0661      5.5433      0.7306
C     -3.0823     11.5234      7.1490
C      6.4163      4.6823     -3.9406
C      3.0327     -5.1369     18.1550
C     -3.4390     15.0387      0.7601
C      5.4359      4.5193     -0.0076
C      4.6273    -17.1583     14.8665
H     -3.5716      7.9124      5.3034
H      7.9403      8.3865      4.1052
H      3.5877      0.9411     23.7002
H      6.6626     -2.7386     22.6381
H      5.0204    -13.2926     18.3734
C     -0.1865      2.5985     21.2170
H      8.2700    -15.2037     14.9586
C      0.3951      8.5828     11.7934
C      2.0714      2.4548     21.2579
H     -2.0048      6.4575     10.7299
H     -1.3024      9.5200     -1.3616
C     -0.2384      6.3321      1.3446
H     -2.6713      2.1462     18.2748
H      5.5326      3.2867      5.5656
H      8.8726     -5.1353     20.4010
C     -2.5789      7.1375     12.5307
O      2.5582     10.2962     13.7717
C      6.9988     -4.1374     20.7596
C      4.0056     -4.4682     20.5891
C      3.4321      1.3920     22.7138
C      3.2670    -12.6475     17.8923
H      8.6454    -15.5872     13.4050
H      6.6008     -0.2315      6.7507
H     -2.4622      5.2909     19.0097
H      4.0502      6.4823     -2.8340
C      3.9278      3.6927      3.4033
C     -2.1545      8.4990      0.7519
C     -1.4731      6.7403     11.6594
H      8.0174      1.9495     -3.3000
C      5.1811      2.3646      5.0695
H      1.9069     -1.3472     20.7795
H      4.9298    -13.7696     16.8588
C      2.0706     -0.6905     21.5522
C      4.4025     -1.6589     20.5782
C     -1.8284      5.2097     16.5132
C      3.7523     -3.1826     20.0036
C      2.7859      3.7299      2.6606
C      5.0703      6.5414     -3.0470
H      1.7063      0.2236     21.0335
H      3.0144      7.8347      0.5094
H      1.0719     11.8055     14.3386
H      7.6778      6.1042      5.5374
H     -2.8084     12.4362      0.2749
H      1.4664      4.1484     -0.9151
O      5.8424      7.1426      6.6017
C      0.7129      8.1174     17.4535
H      4.4886     -1.1449     19.6448
C     -2.5768      8.4523      3.4709
C     -2.1266      7.1176      2.6858
H      8.0516     -2.5224     21.2954
H      8.5689      3.5116      3.6377
C     -2.4809      8.1527      7.7929
H     -3.6275     15.7867      1.7122
H      1.7887      3.3984     17.3421
H     -1.1813     11.3212     -1.5007
H      4.7454      5.1063     -2.1084
C      2.7492      1.0912      1.7931
C     -0.0432      8.5944     14.8121
O      4.3289      4.7743     -0.9362
O      8.0468      4.0737     -2.3616
C     -0.0849      3.2268      1.6116
C     -0.0171      4.1598     17.3113
C      7.0100     -1.8243     19.7940
H     -3.6825     10.8130     -1.9325
H      2.7201     -3.2518     19.6535
H     -0.7365      9.7647      4.3708
H     -1.0431      8.1320     10.0467
O      0.2450      9.6590      6.2745
C      5.9361     -1.9095     20.7798
C      0.7823      7.0571      6.7060
C      1.9198      7.6008      0.9617
H      2.5847      8.5095      2.8007
C      0.7568      7.7972     15.8627
H      8.2999      0.3139     21.7315
C      2.0602    -13.0375     17.2121
C      1.1246      2.4119     20.2144
C     -2.5403     10.8644      6.0817
C     -2.4724      3.2415     18.6538
C      4.2156    -13.6908     17.6265
C      2.9153      3.7397     23.2623
C      0.9263      2.2628      2.0657
C     -1.1158      7.6464      1.5092
C      3.5874     -0.7390     21.5012
N      1.0623    -13.6343     18.2245
C      2.4509      0.5056      0.5674
O      5.0489      6.3224      1.1119
C      9.7287      6.2024      0.5398
H      5.3697     10.2145      5.7794
C     -2.3412      4.4102     15.4539
C     -2.6233      7.8079      9.2077
H      8.2889      2.2198     -4.7775
H      1.8284    -11.8939     19.1342
H      7.0604     -4.1152     18.7339
C     -1.5267      9.9965      0.1899
H      5.4607      7.4132     -2.2946
H      0.9726      7.1723      8.7732
H      0.0761      9.6297     15.2315
H      1.8569      9.3970     10.5988
H      1.9301     -0.3814      0.2254
H      0.3792      3.1490     21.9704
C      2.1362      7.5554      2.6153
H      1.6585      0.9867      0.0169
C      1.4799      9.3517     11.4334
C      6.5037    -15.9406     13.1391
H      7.6362      6.2101     -2.4921
C     -1.8278     10.6599     -1.1537
H      1.7019    -14.3010     18.5518
C      4.0943      8.5561      4.4836
C      7.8269      7.4322      3.3946
C      8.5279    -16.2285     14.5407
C      6.1202    -17.2826     15.0200
C      4.1812      6.1001     -6.3060
C      2.1305      4.9006      2.5402
C      6.2249      5.8451      0.3499
C      5.4173      7.9253      4.2798
C      8.3445      6.3780      0.6977
H      2.1733      9.9559     12.2057
C      4.3253      5.0230     -5.2906
O      0.5285     11.1056     13.7793
C      1.9357      5.2760      0.9281
H     -3.1216      8.9686      7.7021
C      6.2780      7.4770      5.4219
H     -3.2715     15.2757     -0.2866
H     -2.0234      4.6708     14.5226
C      7.4303      5.6807      1.2896
H     -0.4792      3.5466     16.5125
O      7.5612      7.1542      5.6933
H     -5.4193      8.0898     10.5101
H     -3.1747      8.7231      1.4250
H      2.8940      4.0766     -0.2516
H      4.7510      5.4041     -8.2831
C     -0.4243      7.5674     10.9674
H      6.2536      4.0626     -6.0673
C      2.9554      6.2620      2.9525
C     -1.4768      4.4834     17.9504
C      0.5558      6.8339     18.3209
H      5.4715     -3.7713     21.8083
H      2.9322      2.5159      5.1771
C      1.5215     -7.1907     17.7925
H      0.7334    -13.1714     15.8931
H     -2.1149      7.0072      9.4553
C      7.7728     -5.2488     21.0296
C      4.1158      0.5744     21.5502
C      6.3359      7.8324      3.1325
C     -3.4018      9.9641      5.3226
C     -0.0139      6.2997      2.8312
C     -1.3004      6.4954     16.5736
H     -2.9125     12.0740      7.9712
H      1.3378      3.4472      0.5785
H      5.1017    -18.2450     14.3382
H      5.0150      4.2004      1.0943
H     -3.3784      3.3508     19.1345
C      2.0286      1.5910     22.2340
H     -1.2328     10.9157      6.1091
C      0.8583      5.0842      3.5581
C      5.2922      4.0034      3.0274
H      1.1940      4.5623      8.2504
H      5.0947     -4.3569     20.4425
C      7.4558      3.8149     -3.4074
H     -1.6016     11.4021      1.6531
H      7.2356     -1.6481     18.4832
C      1.9461      6.7201      8.9197
C     -1.5285      5.5783     18.9887
C      1.8274    -13.4777     15.9894
C      1.7459     -8.2993     18.7066
C      2.0533      6.4410      7.3311
C      1.9412      4.1064     -0.0225
H     -1.0539      5.6833      0.7756
H      3.5976      0.7299      2.6027
H     -3.7817      9.3592      8.9614
H      3.3741      0.4853     -0.1427
H      6.8084     -5.7165     20.4929
H      6.4789      2.3955     -4.3372
H     -3.4497     10.5848      4.1790
C     -4.6251     12.8198      0.0115
H      5.4362      1.2114      3.6168
C     -0.4127      8.9611      5.0471
C     -3.5413      8.6269      9.7061
C      8.2690     -1.5221     20.5775
H     -2.3110      3.3392     15.9312
H     -4.4051      9.7626      5.8631
C     -0.0431      7.5737      7.7259
C      1.1788      3.4877     18.2272
O      8.9718      5.5125      4.7443
C     -1.4733      8.1354      5.7285
C      5.8652      0.7199      6.9843
C      5.1451      1.6965      6.4320
C      2.8458    -12.2613     19.4184
H      5.0021      2.6735     22.4882
H      8.2742     -1.3055     22.6216
H      0.8371      9.0026      6.6701
H      3.8568    -11.7423     17.1557
H     -0.1027      7.8182      8.8804
C      1.7587      5.0107      7.2412
H     -0.1774      4.2731      1.6295
C      4.0114      5.5501     -7.6710
C      3.8670      2.7845     22.3912
H     -5.6030     12.3469     -0.4553
C     -4.3637      8.1164     10.7269
H      3.4638      3.5880     24.3009
H     -1.2188      5.7086     11.7493
C      3.7521      2.9518      4.7903
C      4.2521      9.8658      5.4358
C      6.3650     -0.7557     21.8255
C      6.9619     -3.5227     19.5369
C      5.6237      4.3147     -5.0950
C      5.5380      0.4599     21.3974
H     -0.3089      3.5270     20.6684
H      5.9211    -15.4433     13.8703
H      5.9939     -0.7607     23.1274
H     10.3027      5.3622      0.8310
H      0.3224      1.7000      3.0185
C      1.3944     10.0713     13.6538
H      1.7987      3.4230     22.9823
H     -2.0920      9.2844      3.0587
