285

C     19.9364      8.8612     13.7811
N     -2.0424     10.4631      1.2693
C      3.8384      1.2574      7.1652
C      2.0050      2.3255      2.7167
H    -11.6417     13.6977      9.3846
C      8.0357      5.0063      2.6275
H     -2.8277      7.1193      2.2418
C      7.6418      3.5813      3.1723
C      3.4067      4.1619      5.7187
C     19.6209      9.8635     11.5760
C     16.3522      7.2853     19.4269
C      6.1024      1.8076      4.0778
C     -7.0436      9.4594      8.7232
C     13.7041      8.7366     13.5720
C     -3.3682     12.2690     -0.5595
C     -4.6589     13.7573      0.4478
N      1.1144      2.5282      5.9628
H     19.2935      8.9952     11.0134
C      0.7686      6.2526      0.5314
O     -0.2952      2.2590      0.1879
C      3.3100      4.1605      7.2674
H     12.9985      6.7564     10.5143
H     -5.5534     13.8953      0.9877
C     15.8904      6.2981     17.0732
C     16.6351     10.7028     16.4954
H     -1.7722      2.9069      6.0538
C     17.0089      9.3514     16.2597
H      4.4898      6.9297      9.2113
H     20.2380     10.6423     10.6697
H      4.1945      5.8669      8.4611
H     -0.5366      5.0152      6.7255
H     -7.1436     13.8729      9.3899
C      3.0874      2.6996      7.9646
H     -2.5489     12.1444     -2.6118
H      7.0305      1.8147      4.8212
C     -5.0837     12.5327      8.5046
C     -2.8873     11.4685     -1.7382
C      5.9483      5.8256     10.2141
H    -11.4642     12.4174      8.5611
H     14.4746      6.3851      9.6422
C      6.3811      3.2759      3.5207
H      4.9002      3.4831      8.2468
H     -9.3672     11.7800      9.6331
H     15.5967      6.0029      9.1673
C     17.1852     11.0744     17.6991
C     -2.4469      8.7381      5.1868
O      2.3464      8.6462      4.6885
C     11.5518      8.0808      6.9410
C      8.6722      8.0224     11.9434
C     20.4906      7.5456     12.8311
C      6.3052      6.7235     12.3475
H      5.1333      5.3540      2.8980
H     17.7292     10.1229     14.3068
H      1.3855     -1.4022      5.3266
H     -4.7939      7.6262      9.2369
C      7.6328      2.7283      8.8879
C      6.8670      6.1896     11.0947
C      8.2930      5.9947      3.6309
H      8.0238      7.2023      2.2970
C     11.9950      6.7943      4.9991
H     15.9976      8.5718     21.2219
H     16.0722     11.3834     15.6664
H     16.8935      6.1248     15.2013
H    -10.4934     17.0504      9.9644
H      2.6253      5.1534      0.4002
C     -3.1242     11.5166      7.7805
C      6.4029      4.8872      9.0808
C     16.2367      7.7248     17.8308
C     -3.6283     14.5648      0.7237
C      5.3978      4.3534     13.5032
C     17.8959      9.4095     15.1420
H     -2.9420      7.7449      5.1368
H      8.4872      7.8902      3.8570
H     -9.3960     13.8907     10.5872
H     -7.0431      8.9889      9.8091
C    -13.6445     16.2858      7.7875
H     21.2055      9.4957     15.3581
C     13.2651      8.4675     12.0522
C    -11.1831     15.1867      8.2939
H     10.6433      6.4650     10.6516
H     -1.7314      9.1883     -1.7165
C     -0.4205      6.4403      1.3701
H      5.2754      7.1976     12.3724
H     -2.2104      2.0959      4.3795
H     -4.8612      6.9766      7.6721
C     10.0714      7.6557     12.4970
O     15.5835     10.1566     14.0471
C     -5.9373      8.7350      7.9315
C     16.8701      8.3577     20.3483
C     -9.5367     14.1312      9.5254
C      2.9661      0.3665      4.9259
H     21.9967     10.0436     13.5397
H     -6.0840     12.9827      7.1719
H     -2.2955      5.1991      6.3817
C      3.9889      3.6377      3.3870
C     -1.8817      8.3756      0.3355
C     11.2797      6.9226     11.2739
H      8.5762      2.9672      9.6757
C      4.9931      2.0213      5.1028
H    -10.8373     10.6739      8.2852
H     17.8602     12.5083     16.3990
C    -10.7893     11.7780      7.9030
C     -8.5337     11.1497      7.5495
C     10.9582      5.0616      3.3132
C     16.9322      9.6538     19.6705
C      2.9009      3.7328      2.5029
C      4.7755      6.8219     10.1934
H    -10.9049     11.7710      6.9312
H     15.3890      7.3949     12.9446
H     14.4237     11.6663     13.7760
H      8.9110      6.5362      5.3151
H     -2.7001     12.1135      0.3915
H      0.2891      4.1018     -0.0601
O      5.7198      6.8314      6.6638
C      0.9513      8.0507      4.4598
H     -8.5488     12.2026      6.7716
C     -2.3323      8.9889      3.7145
C     -2.0692      7.6925      2.9238
H     -5.0278     10.4903      8.6618
H      8.2589      2.8355      3.0436
C     10.2724      7.8918      7.4826
H     -3.5147     15.4090      1.2187
H      1.3679      2.1338      3.7109
H      3.9860      5.1512     12.8795
C      2.7125      1.2066      2.0850
C      0.1253      8.5136      1.9870
O      4.6030      4.9193     12.2318
O      7.2901      3.9558     10.8962
C     -0.4003      2.8708      1.5023
C      0.0095      3.9949      4.2375
C     -5.9922     10.8229      6.9622
H     -3.7178     10.9078     -2.3937
H     15.6266      9.8865     19.9866
H     -0.2849      9.5357      4.2233
H     11.9726      8.0529     10.2444
O      0.2652     10.0369      6.3861
C     -7.1249     10.7815      8.1818
C     13.6716      7.0750      6.7470
C     14.7079      7.5034     13.5926
H     15.7566      8.2805     15.5278
C      0.6563      7.4937      2.9684
H     -4.5931     13.4169      7.7923
C      2.1494     -0.1869      3.9776
C    -12.5378     15.3034      7.6347
C     -2.2670     11.0445      6.7806
C     -2.0765      3.1273      5.0859
C     18.2262     12.0239     17.4741
C     -9.4416     16.4131     10.2522
C      0.6921      2.4326      2.1147
C     -1.2656      7.8526      1.5143
C     -9.4237     11.8510      8.3689
N      1.0129     -0.8155      4.6446
C      2.7105      1.1397      0.5413
O      5.2728      6.5163     14.2654
C      9.6294      6.4533     13.4228
H     18.5542      9.7530     18.4409
C     10.3989      4.2816      2.3719
C     10.0977      7.6143      9.0681
H      8.0588      3.2377      8.0439
H      1.6242      0.7298      6.4891
H     -5.0177      9.4955      5.9175
C     -1.8439      9.7975      0.1790
H      5.3654      7.7542     10.2627
H     15.4791      7.3592      8.9830
H     -0.3762      9.1487      2.5608
H     14.7912      8.4939     10.4350
H      3.7767      1.2803     -0.0610
H     -1.1884      1.8818      0.0550
H    -13.4453     16.7102      8.8494
C     15.0448      7.4598     15.1850
H      2.2006      0.1189      0.3811
C     14.5355      8.6442     11.4567
C     19.7533     10.0130     12.9056
H      7.6747      5.4803     11.4158
C     -1.8210     10.4466     -1.2436
H      0.3162     -1.3200      4.4720
C      4.4590      8.6046      4.4680
C      7.7673      7.2023      3.3045
C     21.4787      9.3448     14.3075
C     19.0832      8.5803     14.9281
C      4.3215      6.0801      6.5086
C      1.8062      4.9188      2.4136
C      6.1608      5.6764     13.5780
C      5.6591      7.6788      4.4157
C      8.1793      6.5461     13.6785
H     15.4519      9.2150     11.9025
C      4.3609      5.1780      7.7110
O     13.8943     11.0648     13.2547
C      1.6716      5.2163      0.9764
H      9.6846      7.5503      6.5576
C      6.3630      7.3582      5.5375
H      0.7408      1.5810      5.3183
H     -2.8250     14.4421      0.1007
H      9.2207      4.6709      2.1149
C      7.4448      5.4942     14.1971
H     -0.3305      3.2364      3.7529
O      7.6152      7.3980      5.6224
H      7.1530      8.2332     10.4082
H     22.0694      8.4716     14.4888
H      2.0211      3.9012     -0.6801
H      5.0630      5.0841      4.5161
C     12.4506      7.5864     11.0896
H      5.8225      4.3696      7.1883
C     15.7713      6.1447     15.5806
C     -1.3675      4.3494      4.6946
C     13.6619      6.8602      5.2322
H     -8.0256      9.0962      8.2345
H      2.9670      2.3006      4.7787
C      1.5948      5.8321      4.8426
H      1.2051     -0.4940      1.9673
H     10.0041      6.3274      9.1056
C     -5.6423      7.4158      8.4751
C     -8.8614     13.3870      8.3985
C      6.4233      7.8201      3.1705
C     -3.1477     10.0354      5.9934
C     -0.1102      6.2681      2.8283
C     11.4990      6.4594      3.3944
H     -3.1326     12.4769      8.1577
H      1.4338      3.1471      0.8217
H      5.3913      3.8227     14.5190
H     -3.1069      3.4222      5.2594
C    -10.9793     14.4385      9.2940
H     -1.1274     11.1004      6.4351
C      0.8340      5.1282      3.4905
C      5.3093      4.1279      3.0698
H      1.1231      4.3309      7.2592
H     17.4960      7.6133     20.9568
C      7.1140      3.8243      9.6985
H     -2.3482     11.4329      1.1469
H     -6.1077     11.4718      6.2188
C     14.9416      6.6236      8.7750
C     -1.3996      5.3895      5.8359
C      2.1682     -0.1120      2.5488
C      2.0634      4.5939      5.5861
C     14.9280      6.4998      7.2809
C      1.2150      3.8927      0.1103
H     -1.0738      5.4220      1.2965
H      3.7992      1.0489      2.1870
H      8.8477      9.2609      8.9603
H      2.1137      1.8219     -0.0327
H     -6.8309      7.1361      8.4664
H      7.2171      1.6162      9.0095
C     -4.6332     12.5272     -0.4806
H      6.1099      0.9167      3.6355
C      0.0943      9.0131      5.2576
C      9.1512      8.3273      9.6329
H      5.9916      3.5808     12.9558
H     -3.3292      9.5276      3.3856
C     -4.6933     11.0920      7.8968
H      9.8128      3.3581      2.5811
H     -3.7809      9.5622      6.9435
C     12.6947      7.8065      7.5990
C      1.1707      3.5160      5.1279
O      9.1711      5.8579      4.5356
C     -1.1124      8.2460      5.5430
C     -6.7034     13.8381      7.0769
C      5.1630      1.4713      6.3632
C      2.6848      0.6078      6.3422
H     -5.6253     14.5288      7.3060
H     -7.8833     15.4081      9.4659
H     -4.5831     12.6200      9.2207
H     -0.4430      9.3224      7.0096
C      1.8366      5.1144      7.0247
H     -0.4904      3.9259      1.3741
C      4.1760      5.3884      5.0445
C     -8.9131     15.5062      9.2981
H     -5.3784     11.9796     -1.0546
H      0.4301      6.0625     -0.6256
C      8.2752      8.1702     10.7844
H     -8.6956     17.3724     10.3396
H      6.9304      5.3164      8.5074
H     11.3780      5.9991     11.8589
C      3.8905      3.0100      4.7588
C     17.4375      9.7864     18.3977
C     -6.6750     12.0557      8.8033
C     -5.7268      9.3949      6.6515
C      5.3100      4.3867      8.2197
C     -7.3162     13.4810      8.4726
H    -14.4790     16.1220      7.2736
H     20.2704     10.9480     13.3396
H     -6.8484     11.6104      9.8534
H     10.4313      5.8151     13.6800
C     14.4036      9.9069     13.7166
H     -9.2534     16.0209     11.4261
H     -1.7176      9.6710      3.5064
