289

C     19.7005      8.6702      0.7068
N     10.8183     10.7629      1.2135
C      3.8657      1.4921      6.8704
C     15.0474      2.5308      2.2575
H     14.0755      1.0990     10.0346
C      7.8461      4.8524      2.4957
H      9.6177      6.9527      2.5269
C      7.4556      3.6409      3.0407
C      3.5266      4.4396      5.4779
C     19.5462      9.7570     -1.6679
C     16.3776      7.3968      6.6405
C      6.1479      1.8209      3.9573
C      6.1671      8.1209      8.6699
C     13.6837      8.6412      0.9949
C     10.1833     12.2793     -0.7920
C      8.6951     13.5595      0.6062
N     13.4818      2.6022      6.1405
C     13.7093      6.3124      0.6150
O     11.5052      2.6112      1.1694
C      3.2773      4.3619      6.9499
H     13.0200      7.1675     10.6865
H      7.7656     13.3506      0.9907
C     15.8020      6.3754      4.4764
C     16.9485     10.6279      3.2920
H     10.1899      3.0654      6.6908
C     17.0815      9.2037      3.2448
H      5.2058      7.5321     10.2035
H     20.6943     10.4856     -1.8112
H     14.7348      3.7410      9.8529
H     11.9285      6.3195      7.2038
H      5.6352     14.6532      8.5355
C      3.2982      2.9471      7.5059
H     11.1955     11.8963     -2.4491
H      7.0828      1.8350      4.4558
O     14.3132     10.1821      2.6898
C      7.6588     12.7665      8.8715
H     19.1319     10.7772     -0.0901
C     10.4467     11.2590     -1.7393
C      5.8891      5.8197      9.9132
H     15.9178     -0.0694      6.6707
H      3.5088      5.8335      8.4552
C      6.3124      2.8695      3.0914
H      5.6634      3.6326      7.4442
H     18.8114     10.4466     -1.8872
H      3.7783     11.2008      9.0622
H     14.5379      7.8828      9.4070
C     17.3126     11.0481      4.5290
C     10.0934      8.7832      5.1344
O     15.0321      8.6611      4.5364
C     11.5438      8.3241      7.2651
C      8.7145      7.7516     11.8042
C     20.4914      7.4557     -0.1681
C      6.3531      6.5535     12.1807
H     18.0100      3.1558      1.3987
H     17.5362      9.9746      1.5365
H     14.5104     -1.9108      4.2501
H      7.6668      5.7048      8.3821
C      7.4897      2.7198      8.4235
H     14.0429      0.6983      1.8577
C      7.0301      5.9676     10.8488
C      8.3745      5.9702      3.2987
H      8.1805      7.2862      1.9122
C     11.9886      6.8514      5.1574
H     16.6808      8.6001      8.3913
H     16.3760     11.1681      2.6306
H     15.3887      5.6993      0.9014
C      9.5630     11.4816      7.7697
C      5.9681      4.4641      9.0788
C     16.0170      7.8802      5.0557
C      9.0659     14.8449      0.7072
C      4.8499      4.7237     12.3368
C     17.5482      8.9654      1.8660
H      9.2016      8.4564      5.6190
H      8.2221      7.8020      3.8215
H     16.8671      1.5636     10.2213
H      5.5428      9.0777      9.2608
H     18.6521     12.7056      4.7241
C     12.4464      3.2155      8.2750
H     20.3295      9.4333      2.1489
C     13.4408      8.7165     -0.6637
C     14.8325      2.0070      7.7581
H     10.8522      6.8812     10.7917
H     10.5064      9.4895     -1.8449
C     12.1547      6.1665      1.5634
H      5.1370      7.1160     12.1427
H     11.7624      2.7877      5.5663
H     18.1347      9.5414      0.1406
C     10.0268      7.3024     12.6086
O     15.5351      9.9192      0.7845
C      7.4558      8.1864      8.2239
C     16.8503      8.5118      7.3682
C     16.2509      1.3343      9.4647
C     15.3123      1.1005      4.7459
H      8.6809     11.1593     -0.4017
H     11.7992     10.7650      1.1561
H      6.1235     12.8482      6.3755
H     16.0034      6.8403      9.5246
C     17.0014      3.5618      3.0618
C     10.7228      8.4428      0.4927
C     11.4790      7.1371     11.7810
H      7.8254      1.7643      9.1259
C      5.0815      2.3810      4.9408
H      2.1219     11.8190      9.4584
H     17.3304     13.5056      4.1305
C      2.4069     12.2119      8.4195
C      4.4683     10.9667      7.3651
C     10.4576      5.3189      4.0436
C     16.8072      9.8769      6.5384
C     15.5525      3.6652      2.5575
C      5.3915      7.0186      9.3218
H      1.5616     12.1310      7.7288
H     15.4787      7.8640      0.2242
H     11.0314     12.8168      0.1142
H     13.0550      4.0485      0.0848
O      5.7795      7.0050      6.3357
C     13.7709      8.2759      4.7103
H      4.8096     11.5322      6.5680
C     10.2018      8.7672      3.7498
C     10.4525      7.5407      2.8517
H      8.6357     10.8693      9.1568
H      7.8496      3.7275      3.9645
C     10.4359      8.0234      7.7783
H      8.9957     15.7412      1.4719
H      2.5805      4.2844      4.9277
H     12.3645      9.9745     -1.2336
H      3.2268      4.8599     13.7661
C     15.9535      1.3103      2.1520
C     12.7028      8.4871      2.1552
O      3.6129      4.3321     12.8326
O      7.5877      3.5354     10.5136
C     12.4936      2.9338      1.7634
C     12.9474      3.8929      4.1065
C      7.1486     10.6932      7.6160
H      9.7892     10.9022     -2.3177
H     15.7132      9.8750      6.1863
H     12.4533      9.8489      4.2652
H     12.1621      8.6508     10.4087
O     13.3282     10.4995      6.0006
C      5.9035     10.8382      8.6244
C     13.7455      7.4412      6.9775
C     14.5845      7.4412      0.8455
H     15.4583      8.2195      2.7047
C     13.4783      7.5045      3.1191
H      7.6706     13.7103      8.1455
C     15.0075      0.0403      3.8012
C     13.5589      2.5738      7.5648
C     10.3514     11.0408      6.7686
C     10.7221      3.3968      5.6717
C     17.5654     12.5486      4.6253
C     15.9978      3.8719      9.8049
C     13.6903      2.2886      1.8302
C     11.5513      7.6961      1.7217
C      3.6239     11.9081      8.3062
N     15.1889     -1.1496      4.5323
C     16.4844      1.0678      0.7915
C      9.5289      6.1648     13.5068
H     18.6643      9.5022      6.0006
C     10.2698      4.1696      3.0100
C      9.7514      8.1465      9.2195
H      8.4832      3.5888      8.2472
H     14.9455      1.1461      6.9283
H      8.1609      9.1032      6.3262
C     10.6254      9.8136      0.0773
H      4.3393      6.8825      8.8155
H     14.5119      6.1319      9.3341
H     12.4682      9.3555      2.7327
H     14.2111      9.0183     -2.5451
H     15.6723      0.8757      0.1708
H     11.3363      3.4632      2.8155
H     12.4464      3.9002      9.0063
C     14.9228      7.4076      2.3913
H     16.8842      2.1685      0.3725
C     14.1875      9.5384     -1.4883
C     19.0760      9.6933     -0.2881
H      7.4641      4.9539     11.2959
C     11.2364     10.0829     -1.2402
H     14.9040     -1.1056      5.5312
C      4.4801      8.6087      4.5398
C      7.8235      7.2113      3.0177
C     20.8779      9.5603      1.1784
C     18.8313      8.3509      1.7324
C      4.5283      6.3720      6.4792
C     14.8253      4.9710      2.4985
C      6.0395      5.5233     13.1759
C      5.7646      7.5505      4.1712
C      8.1221      6.4016     13.5678
H     15.2167     10.0160     -0.8286
C      4.2735      5.3026      7.5696
C     14.5408      5.0691      0.9592
H      9.7513      8.0655      6.9960
C      6.5894      7.4873      5.4920
H     14.1688      1.3851      4.8422
H      9.6276     15.2831     -0.0955
H      9.7705      3.9654      2.0317
C      7.1512      5.3282     14.0716
H     11.9234      4.0715      4.1865
O      7.7281      7.2432      5.6415
H      9.1537      8.7040     11.4532
H     22.0102      9.2382      0.7256
H     12.7780      2.8179      3.5807
H     14.4207      4.5682     -1.0256
H      4.6649      5.4827      4.1486
C     12.6062      7.9639     11.2573
H      6.5545      5.1441      7.0559
C     15.5889      6.3004      2.9509
C     10.7277      4.8074      5.4790
C     13.5035      6.9322      5.5362
H     19.6277      8.8025     -2.1428
H     15.9747      2.1558      4.7085
C     14.2235      5.8847      4.7908
H     15.5016     -0.7751      2.1647
H     13.7302      9.6069      2.8659
H     10.8113      7.8901      9.6643
C      8.0855      6.8159      8.1355
C      4.1879     13.3389      8.1222
C      6.4399      7.6107      2.8892
C      9.9114     10.3848      5.5749
C     12.5999      6.2704      3.0012
C     11.4576      6.4864      3.8425
H     10.1264     12.1270      8.6782
H     14.7939      3.2718     -0.4989
H      5.2378      3.8369     11.9753
H     10.2302      2.9553      4.8492
C     14.8145      1.4356      9.0551
H     11.3983     11.6879      6.5763
C     13.6102      5.2554      3.4589
C     18.2044      3.4687      2.3815
H     14.4241      4.6247      8.0865
H     17.9335      8.3776      7.7394
C      6.6976      3.4233      9.3114
H     10.6615     10.1443      2.1197
H      7.2046     10.6118      6.2546
C     15.0738      6.9905      9.0343
C     11.4123      5.8344      6.1115
C     14.9711      0.2180      2.3506
C     14.0885      4.9243      5.9030
C     15.0698      6.8474      7.3821
C     14.1012      4.0568     -0.1664
H     11.3842      5.1924      1.6820
H     16.6499      0.7793      2.8817
H      9.0716      9.2119      9.3559
H     16.9390      0.2068      0.4914
H      8.9579      6.5472      7.2872
H      7.5235      2.4102      7.3006
H     10.4783     10.8378      4.7988
C      8.8789     12.3900     -0.5517
H      6.5707      1.0172      2.9615
C     12.8889      9.2301      5.1943
C      8.8402      6.9851      9.4412
H      5.2181      5.5831     11.3047
H      9.7337      9.2290      2.7234
C      8.1682     11.4408      8.1798
H      9.2030      3.7630      3.1955
H      8.9794     10.9294      5.6113
C     12.8548      7.9295      7.9322
C     13.5668      3.7700      5.4973
O      9.1840      6.1368      4.4347
C     11.4266      8.3870      5.6554
C      6.1674     13.7533      6.8082
C      5.2022      1.6831      6.2691
C     15.8602      0.7667      6.1287
H      7.1788     14.2446      6.5222
H     17.6894      2.7212      8.9215
H      8.0169     13.1439      9.7164
H     13.7353     10.1184      6.7321
H     17.1325     12.9989      5.4361
H     12.6844      7.8660      8.9811
C     14.7959      5.2625      7.2173
H     12.7296      4.1564      1.8056
C      4.1799      5.6970      5.0750
C     16.6510      2.7471      9.1109
H     21.1924     10.4637      1.1010
H     13.3205      6.0612     -0.6123
C      8.1355      6.8634     10.7859
H     16.1010      3.7534     11.0237
H     11.7307      6.3373     12.3486
C     17.2442      3.4854      4.4649
C     17.8259      9.8985      5.4186
C      6.1914     12.4286      9.0088
C      7.8028      9.2162      7.4705
C      5.5868      4.6805      7.8518
C      5.6291     13.5943      8.2282
H     11.8247      3.5667      7.5743
H      9.4850      9.9685     -0.3733
H      5.5468     12.5208      9.8782
H     10.0562      5.3110     13.4207
C     14.5694      9.8367      1.4147
H     16.7615      4.8533      9.6532
H     11.2291      9.4740      3.5499
