282

C     -6.2121     -3.7371      0.7868
N     -1.6830     10.7198      0.8454
C     16.9351      1.3032      7.3067
C    -10.6069      2.4613      2.4054
H     14.3346      1.2705     10.2856
C     -5.1333      4.9212      2.4392
H      9.9407      6.4578      2.3355
C     -4.7591      3.4043      2.8544
C     16.2276      4.2111      5.4140
C     -6.6599     -2.9623     -1.6167
C      3.3187      7.2705      6.7863
C     19.1480      1.7345      4.1867
C      6.2372      9.3868      8.7950
C      0.9184      8.7281      0.7863
C     -3.6426     12.5619     -0.2194
C     -4.7512     14.0928      1.0355
N     13.3617      2.4616      6.1558
H     -7.1826     -3.9700     -1.9827
C      0.6915      6.1413      0.8476
O    -14.1249      2.8583      1.2238
C     16.3116      4.0727      7.1894
H     -5.7180      2.4492      1.9048
C      2.8271      6.4916      4.6356
C     -9.3485     -2.1535      3.3823
H     -3.0156      2.8690      5.1454
C     -9.1511     -3.6302      3.1916
H     18.5812      7.6523      9.4875
H     -6.7056     -1.8903     -2.2078
H     19.1888      3.1748      5.3309
H     16.8842      5.1296      8.7909
H     -0.2059      5.1856      6.6907
C     16.3114      2.5780      8.0195
H     -3.4714     12.0183     -2.3770
H     19.9977      1.6326      5.2024
C      8.0179     12.3947      8.6960
C     -3.8183     11.3470     -1.2618
C     19.5077      5.7809      9.7983
H     14.8946     -0.0473      8.8454
H     14.5921      5.5095      9.0202
C     -6.1920      2.6570      3.0465
H     18.4230      3.5444      8.2766
H     17.1551     -1.6179      9.3166
H     16.0393      6.4607      9.3921
C     -8.9233     -2.0280      4.7341
C     10.1405      8.4844      5.0519
O      1.9258      8.8743      5.0598
C     11.4395      8.2785      7.3110
C     -4.2221      7.9501     -0.6768
C     -5.6238      7.7094      0.1640
C     19.3182      6.5372     12.2931
H     -7.6022      4.1230      1.6528
H     18.9330      3.4345     12.3070
H     -8.4407     -3.1749      1.2790
H    -11.8960     -1.0529      6.0448
H      7.9276      6.9086      8.9155
C     21.3696      2.7121      8.7682
H    -11.9128      1.3698      1.6440
C     20.1897      5.6534     10.8425
C     -4.5760      5.8543      3.2965
H     -4.2960      8.0124      2.0832
C     -0.7971      6.6358      5.3226
H      3.9845      8.0502      8.6928
H     -9.2868     -1.3382      2.6786
H      3.7519      6.2057      2.5907
H     16.2534      4.0368     11.0530
H      2.7618      5.2748      0.8350
C      9.5507     11.5628      6.9515
C     19.7040      4.8342      8.7470
C      2.8324      7.7616      5.2841
C     -3.7230     14.5793      1.3950
C     18.3848      4.3736     12.5269
C     -8.5891     -4.1142      1.9829
H      9.2580      8.0874      5.6274
H      8.5414      8.2982      3.7858
H     16.5311      0.6916     10.6020
H      7.2152      9.1661      9.1033
H     18.2580      0.6314      5.6524
C     12.8071      3.5300      8.2204
H     -4.6836     -3.2635      2.4037
C      0.6114      8.5054     -0.6171
C     14.8454      2.2563      8.3093
H     -1.8605      6.6500     -1.6873
H     -2.5161     10.1232     -2.3449
C     -0.4357      6.5631      1.6420
H     18.5512      7.1693     11.8682
H     -1.7766      2.2141      6.0216
H      8.8597      7.4540      7.6331
C     -2.8625      7.2664     -0.0389
O      2.9795     10.3811      0.7798
C      7.0827      8.7499      7.6474
C      4.2082      8.3735      7.4820
C     16.3788      1.1173      9.7164
C     -9.5602      0.3212      5.0139
H     -5.3079     -1.9406      1.6961
H     20.0645      0.7568      6.7879
H     -1.9661      5.7898      7.0169
H     17.9882      6.1887      8.6766
C     -8.5443      3.5595      3.2334
C     -2.2402      8.4685      0.8408
C     -1.4915      7.1017     -0.6890
H     21.8991      2.0472      9.7202
C     18.2222      2.5970      5.3043
H     14.5906     -2.0168      9.8065
H     -7.7801     -0.5500      4.1400
C     15.0484     -1.1632      8.9639
C      4.4536     10.9699      7.4060
C     -1.8244      5.0375      3.6908
C      3.9100      9.7677      6.8301
C    -10.1060      3.5577      3.1111
C     18.4296      6.5413      9.6025
H     14.5291     -1.5228      8.0846
H      2.5453      7.7321      0.4011
H     -3.2483      5.8964      4.5427
H     -2.6417     12.8218      0.2001
O     18.6066      6.7089      6.4518
C      0.6007      8.1605      4.6885
C      9.7094      8.3657      3.6459
C     10.6790      7.3755      2.9632
H      8.7198     10.3100      8.3134
H     -3.8106      3.4425      3.8018
C     10.3080      8.4609      8.0244
H     14.5934      2.6154      4.5575
H     -1.6524     11.1417     -1.3583
H     18.2498      4.8262     10.3625
C     -9.9354      1.0367      2.4002
C      0.0784      8.7520      2.0741
O     17.8115      4.8534     11.2380
O     20.0331      3.4732     10.5222
C    -13.0065      3.4348      1.8294
C      0.1338      3.9902      4.1681
C      6.9962     11.0117      6.7776
H     -4.6085     10.6058     -1.5750
H      2.8157      9.6726      6.5663
H     11.8665      9.2855      3.7221
H     -1.0901      9.2033     -2.1326
O     12.8564     10.1221      5.5243
C      6.0877     10.8566      8.0230
C     13.6794      7.0331      7.1088
C      1.8411      7.4965      1.1406
C      0.6940      7.8307      3.0856
H      8.2448     13.5430      8.4618
C    -10.8194     -0.1186      4.4288
C     13.6241      2.7273      7.4861
C     10.4683     10.5598      6.3845
C     -2.0086      3.0311      5.3171
C     -8.4250     -0.5429      5.0252
C     16.2059      3.4246     10.1289
C    -12.0989      2.4528      2.2560
C     -1.2695      7.8986      1.8624
C     16.5041     -1.1427      8.6074
N    -11.8101     -0.7231      5.1131
C    -10.0624      0.2959      0.9187
C     -3.4249      6.2680      0.8048
H     18.5851      9.7043      5.5366
C     -2.4477      4.3733      2.6089
C     10.1541      8.2097      9.4167
H     22.2092      3.1718      8.3280
H     15.1327      0.0667      6.6416
H      7.6519      9.2327      5.7593
C     -2.1435      9.7603      0.0764
H     17.7995      6.3648     10.5429
H     14.4986      7.1544      9.1387
H     -0.0287      9.6809      2.7619
H      1.8204      7.7227     -2.0939
H    -10.8197     -0.4396      0.9467
H     13.2773      3.9949      9.1390
C      2.0055      7.6327      2.6897
H    -10.7274      1.1219      0.5959
C      1.6901      8.6770     -1.3391
C     -6.5508     -2.6672     -0.2921
H     20.8744      4.7739     11.3819
C     -2.5827     10.5676     -1.1659
H    -12.8080     -0.4450      5.1763
C     16.9431      8.4048      4.5602
C     -5.1048      7.3178      2.6321
C     -5.0340     -3.0232      1.4041
C     -7.0972     -4.3002      1.9622
C     17.3210      6.1993      6.6234
C      2.0926      5.0737      2.6304
C     19.0546      5.4517     13.2711
C     18.3338      7.6677      4.1338
C     -5.0916      6.8649      1.3852
H      2.7111      8.9418     -0.5797
C     17.2579      5.0333      7.6622
O      0.8168     11.1149      1.1046
C      1.8770      5.0965      1.2195
H      9.4723      8.6952      7.1072
C     19.0954      7.3007      5.1723
H     12.7290      1.7113      5.8721
H     -2.7195     15.0548      1.5913
H     -2.7261      4.8944      1.5950
C     20.0870      5.5889     14.2374
H     -0.5866      3.6228      3.2230
O     20.3644      7.4953      5.0819
H      7.4036      8.9830     10.9431
H     -3.1999      8.7964      1.1717
H      0.9257      3.2065      0.7224
H     17.6180      5.5257      4.3587
C     -0.7020      8.2460     -1.4592
H     19.2612      3.8926      6.9510
C      2.8011      6.3905      3.0945
C     -1.5089      4.4383      5.0510
C      0.6717      7.0018      5.4351
H      5.2782      9.3477      9.2641
H     15.4046      1.8645      6.1737
C     14.5000      5.8324      4.9091
H    -11.8687      0.7197      2.8059
H     10.9140      7.5078      9.7236
C      7.8363      7.3943      7.8217
C     17.1640      0.3116      8.3768
C     19.3396      7.8867      3.0103
C     10.0467     10.0389      5.0685
C      0.0963      6.5482      2.9318
C     -1.3113      6.4229      3.6656
H     10.4882     12.2023      6.8185
H      1.3638      3.7841     -0.6267
H     -9.3034     -4.8286      1.3478
H     17.4521      4.2978     13.0986
H     -1.8404      2.9765      4.2064
C     14.9611      1.2160      9.2495
H     11.5625     10.9653      6.2855
C      0.7712      5.2621      3.5320
C     -7.6731      3.3159      2.2783
H     14.2194      4.5484      7.9570
H      5.2835      8.1521      7.3556
C     20.2778      3.5828      9.2749
H     -1.6367     11.6319      0.5826
H      6.4291     11.4001      5.9782
C     15.0738      6.3752      8.9653
C     -1.1996      5.5121      6.1550
C    -11.0623      0.3961      3.2129
C     14.7891      4.3851      5.5749
C     14.8609      6.2742      7.5702
C      2.0249      3.7119      0.3530
H     -1.1835      5.5280      1.3403
H     -8.8372      1.2440      2.6081
H      8.8288      9.6708      9.5404
H     -9.1109      0.4937      0.3557
H      7.3815      6.4794      7.3388
H     19.7825      2.2283      7.6834
H     10.5859     10.1991      4.2158
C     -4.9228     12.7439      0.3183
H     18.2082      1.3438      3.7200
C     12.3599      8.9975      4.9765
C      9.1469      8.7382      9.8903
H     -4.0180     -2.7290      0.8282
C      8.6380     11.4284      7.9193
H     -2.4768      3.4456      2.4774
H      9.0298     10.3414      4.6538
C     12.5579      7.5620      7.6752
C     13.8715      3.1769      4.9810
O     -4.1359      5.4890      4.4005
C     11.4977      8.0427      5.7598
C     19.1935      1.3092      7.3614
C     18.2124      1.5917      6.3445
C     15.8488      0.8734      6.4186
H     18.1820      2.4021     10.0254
H      8.0594     12.5143      9.8718
H     12.6639     10.9248      5.0745
H     12.3814      7.1069      8.8752
C     14.9521      4.6139      7.1522
H    -12.6584      4.4017      1.7605
C     16.9165      5.3829      5.2454
C     17.1086      2.3660      9.5533
H     -5.7312     12.4027     -0.1913
H      0.6129      6.2206     -0.2198
C      8.2769      8.5067     11.1746
H     15.3630      2.8156     10.1493
H     20.3051      5.0304      7.8140
H     -0.9038      6.4592      0.0519
C     17.0085      3.0554      4.5723
C     17.3731      9.6812      5.4504
C      6.5356     12.1959      8.6768
C      6.9828      9.4933      6.4743
C     18.6552      4.3960      7.7605
C     18.6089      0.2395      8.3001
H     11.9529      3.9602      7.8924
H     -5.8205     -1.5297     -0.0256
H     -3.3442      5.5058      0.1406
C      1.6946     10.0456      0.8592
H     15.8570      4.0685      9.3663
H      9.9342      9.2988      3.1162
