282

C     19.8153      8.7290     13.6774
N     -2.1788     10.3683      1.3548
C      3.5691      1.6543      7.0091
C      2.2081      2.5497      1.9482
H    -11.8488     13.5563      9.6692
C      7.5301      5.0836      2.4560
H     -3.0603      7.3707      2.7375
C      7.5791      3.8869      3.1399
C      3.6359      4.2688      5.4665
C     19.6320     10.0297     11.1697
C     16.2750      7.2772     19.4520
C      6.3078      1.9517      4.2039
C     -6.8049      8.4203      9.0296
C     13.7585      8.8026     13.6733
C     -3.5640     12.1389     -0.8997
C     -4.2458     13.6972      1.0552
N      0.3788      2.7438      6.1142
C      0.6945      6.2509      0.7873
O     -1.5080      2.2936      1.5638
C      3.1337      4.1938      6.8525
H     13.4595      6.7666     10.7841
H     -4.9287     13.7616      1.8114
C     15.6662      6.4465     17.2559
C     17.0658     10.4716     16.0943
C     16.7793      9.1462     16.0634
H     20.6147     10.4529     11.2277
H    -10.6239     16.5355     10.1182
H     -7.2867     14.2296      9.2443
C      3.1973      2.9119      7.7325
H     -1.9199     11.8319     -2.4279
H      7.3775      1.7769      4.7085
O     14.5734     10.1042     15.4680
C     -5.2839     12.3934      9.0468
H     19.3302     10.7052     13.1291
C     -2.7243     11.3649     -1.7427
C      6.2297      5.8485      9.7415
H      3.1104     -0.3946      6.7339
H      4.0659      4.8029      8.6505
C      6.3265      3.2643      3.3596
H     18.7667     10.3764     10.7595
H     -9.1006     11.7828      9.4731
H      2.8958      7.7247      9.2009
C     17.1207     10.9566     17.3783
C     -2.6579      9.0579      5.1885
O      2.3532      8.8536      4.6842
C     -1.1164      8.2839      7.2089
C      8.4909      7.9981     11.9852
C     20.3165      7.4976     12.8751
C      6.1631      6.6673     -0.7627
H      5.4849      3.9083      1.0985
H     16.8645      9.5538     14.0850
H      2.0664     -2.0541      4.1436
H     -5.3750      6.0768      8.4143
C      7.6328      2.5468      8.6900
H      0.6623      1.0857      2.0928
C      7.1112      6.3058     10.9501
C      8.2533      6.0216      3.1794
H      8.6478      7.8911      2.2368
C     -0.9546      7.0671      5.1659
H     15.9157      8.9010     20.9921
H     16.6280     11.2318     15.2803
C     -3.1443     11.1653      7.9123
C      6.0779      4.5550      9.0861
C     16.2495      7.7310     17.9401
C     -3.5338     14.7521      1.0335
C      5.2260      4.4129     -0.5304
C     17.4076      8.6785     14.7676
H     -3.4447      8.0216      4.9973
H      8.5575      7.8322      4.0128
H     -9.8432     13.9671     10.4580
H     -7.7418     10.1300      8.2842
H     18.5179     11.8318     18.1438
C     -0.6813      3.3812      8.0919
H     21.0548      9.7321     15.0460
C     13.1038      8.6470     12.3318
C      1.6494      2.4094      8.0093
H     10.7081      6.6073     10.6309
H     -1.9277      9.3418     -1.7628
C     -0.5762      6.4936      1.4215
H      5.5415      7.5126     -1.2226
H     -2.6994      2.9905      4.6943
H     17.9639      9.5670     12.6836
H      7.7374      7.1621      6.7130
C      9.7658      7.4045     12.5350
O     15.6500     10.5393     13.8429
C     -5.7392      8.2758      8.1041
C     16.8388      8.6168     20.3192
C     -9.9013     14.3299      9.3625
C      2.2697      1.2369      4.8585
H     -5.1273     11.8507      0.5262
H     -1.1817     10.8862      1.2200
H     -6.8113     13.0683      6.4387
H      3.2342      6.3008      9.3793
C      4.0452      3.6035      3.1164
C     -2.2837      8.1117      0.3758
C     11.2072      6.7650     11.5656
H      7.1689      1.5960      9.1992
C      4.9826      2.1008      4.9862
H    -10.9001     12.2731      9.7370
H     18.5027     12.2324     16.5135
C    -10.6613     11.7376      8.7160
C     -8.3585     11.1717      7.2764
C     -2.5482      5.5501      3.6817
C     16.7244     10.0187     19.5263
C      2.6935      3.5759      2.5875
C     -7.3685      7.1813      9.4209
H    -11.4729     11.5392      8.1437
H     15.3514      7.3798     13.3402
H     -2.9826     13.0221     -1.2352
H     -0.3051      3.8156      0.2803
O      5.7238      6.9937      6.3086
C      0.7830      8.3480      4.5215
H     -8.3209     11.9664      6.7824
C     -2.3824      9.0088      3.7399
C     -2.0791      7.9164      2.8894
H     -4.4236     10.1735      9.3549
H      8.6025      3.7702      3.9047
C     -2.2490      8.4525      7.8798
H     -3.7589     15.4879      1.7663
H      2.6127      4.1325      4.9014
H     -0.7341     10.5503     -1.2528
H      3.6444      3.4898      0.4449
C      3.0267      1.3722      1.7701
C     -0.1253      8.6362      1.8661
O      3.7586      4.0939     -0.1097
O      7.4652      3.5382     10.7880
C     -0.3770      2.7823      1.5711
C      0.1566      3.7510      4.0730
C     -5.4424     10.7209      7.3708
H     -3.2956     10.7776     -2.6453
H     15.5218     10.2298     19.3631
H     -0.0343      9.8870      4.1697
O      0.4324      9.8472      6.4115
C     -7.0709     10.9901      8.0955
C      0.9122      7.4010      6.7299
C     14.4554      7.3938     13.8991
H     15.9516      8.1993     15.4989
C      0.5384      7.9269      2.9640
H     -5.2979     13.1857      8.2891
C      2.2885      0.1070      3.7734
C      0.4943      2.9626      7.3927
C     -2.5329     11.0619      6.7409
C     -2.2335      3.4116      5.5082
C     17.8800     12.3252     17.4475
C     -9.5584     16.3732     10.3380
C      0.7776      2.1421      1.8986
C     -1.2990      7.7630      1.5000
C     -9.2434     11.9084      8.3923
N      1.5232     -1.1579      4.3049
C      3.5534      1.3530      0.2111
C      9.2272      6.1948      0.2086
H     18.4207      9.7855     18.9490
C     -2.5042      4.4972      2.6569
C     -2.5782      8.1382      9.1759
H      8.6318      2.2224      9.1392
H      1.7383      0.0837      7.2537
H     -4.5685      8.8080      6.2626
C     -2.4480      9.6149      0.2222
H     -7.8405      6.7574      8.6006
H      1.4907      6.8813      9.4501
H     -0.3369      9.6351      2.3292
H     13.9862      9.4712     10.4365
H      2.5461      1.8520     -0.0372
H     -1.8008      4.3169      2.0404
H     -0.4824      3.4331      9.2272
C     14.9017      7.4885     15.2978
H      4.5547      1.4293      0.5030
C     14.2368      9.2611     11.6802
C     19.0714      9.6629     12.6467
C     -1.8688     10.2358     -1.1403
H      1.1219     -0.5914      5.2232
C      4.5659      8.4705      4.4632
C      8.1497      7.4641      3.0192
C     21.0174      9.4204     14.1386
C     18.9683      8.4895     14.8798
C      4.5373      6.3310      6.3210
C      1.9931      5.0007      2.6691
C      5.9902      5.6092      0.1815
C      5.9439      7.9189      4.3016
C      8.0527      6.4564      0.7947
H     14.8320     10.1217     12.3238
C      4.2612      4.9526      7.6044
C      1.2661      4.9452      1.0034
H     -2.9952      8.8895      7.0697
C      6.5909      7.5965      5.4382
H      1.2055      1.2957      5.3480
H     -3.1062     14.9365      0.0995
H     -3.2091      4.2569      1.9176
C      7.0716      5.3601      1.0306
H     -1.0818      3.5124      4.2293
O      7.8478      7.4332      5.7717
H      8.4405      9.1242     11.7124
H     21.8922      8.7156     13.9299
H      0.6144      3.0445      3.0055
H      0.5168      4.8913     -0.7871
H      4.8544      5.2717      4.3484
C     12.5412      7.4129     11.5059
H      6.1662      4.8918      7.0241
C     15.4068      6.3353     15.8568
C     -2.0441      4.8234      5.2214
C      0.5826      7.1990      5.3469
H     19.6981      9.0009     10.2542
H      2.2936      2.1396      4.3083
C      1.1986      5.9456      4.6463
H      2.1914     -0.5228      1.5325
H     15.5971     10.0760     15.7688
H     -2.0203      7.2880      9.5506
C     -4.7183      7.0570      8.1938
C     -9.0631     13.6465      8.2707
C      6.6533      8.0900      3.0919
C     -2.9475     10.6332      5.2921
C     -0.2553      6.5063      2.9135
C     -1.5905      6.7906      3.7724
H     -2.3535     11.2882      8.7202
H      1.3962      3.2320      0.0959
H      5.5482      3.6609     -1.2304
H     -2.6558      3.9190      6.6114
C    -11.3101     14.3048      9.0175
H     -1.5258     11.4605      6.4648
C      0.5359      5.3550      3.4669
C      5.1689      3.5430      2.3963
H      1.3815      4.5575      7.7930
H     17.7417      8.3142     20.6347
C      7.0994      3.4446      9.5139
H     -2.8166     11.1197      1.3289
H     -5.0403     10.9445      6.3214
C      2.3162      6.8875      8.7866
C     -1.2599      5.9842      6.0188
C      2.4371      0.2310      2.4131
C      1.2316      4.9149      5.6208
C      2.1940      6.6845      7.4284
C      0.5597      4.0899      0.0573
H     -1.2280      5.6115      1.3074
H      4.1526      1.3678      2.3465
H     -2.4458      8.9327      9.9864
H      3.7632      0.1919      0.0945
H     -3.8794      7.2202      7.4108
H      8.0470      2.6860      7.7314
H     -2.2145     11.0014      4.7264
C     -3.9557     12.2323      0.4105
H      5.7353      1.5299      3.4548
C     -0.1422      9.4451      5.1145
C     -4.0227      7.5723      9.4107
H      4.9748      5.2594     -1.3332
H     -2.9838      9.5804      2.8639
C     -4.5039     11.1802      8.4887
H     -2.6177      3.6735      3.0405
H     -3.7706     10.5889      4.5106
C      0.1173      7.8586      7.6341
C      0.7574      3.7043      5.2715
O     -3.8937      5.8513      4.1528
C     -1.3960      8.5345      5.8610
C     -6.9390     13.9283      7.1557
C      5.0244      1.7877      6.4563
C      2.6094      0.6916      6.4400
H     -6.1158     14.4835      7.2980
H     -8.0776     15.8826      9.0778
H     -4.8951     12.9969      9.8009
H      0.9449     10.8795      6.2861
H     17.5721     13.5463     17.5293
H      0.1778      7.7370      8.7613
C      1.8995      5.1739      6.9515
H     -0.4864      4.0473      2.1193
C      4.0837      5.7544      4.9567
C     -9.0812     15.5324      9.2008
H     21.0734     10.2499     13.1400
H      0.5531      6.1589     -0.1702
C      8.1812      7.3396     10.6939
H     -9.4338     15.9246     11.2840
H     11.2537      5.6733     11.8368
C      4.3102      3.2790      4.6560
C     17.5345      9.7028     18.2753
C     -6.9446     11.9632      8.9916
C     -5.1002      9.2770      7.2570
C      5.5414      4.3575      7.6083
C     -7.6192     13.2679      8.4515
H     -1.5399      3.7796      7.5063
H     -3.5262      9.6754     -0.0489
H     10.0156      5.4346      0.5644
C     14.6942      9.7694     14.2288
H     -8.8772     17.1684     10.5048
H     -1.2971      9.2438      3.4832
