284

C      6.8071     -3.8355     13.6081
N     11.1012     10.9713      1.0281
C      4.0354      1.6608      7.2587
C      2.3313      2.6163     15.4020
H      1.6273      1.5086     10.4054
C      7.8830      4.8597     15.2453
H      9.9182      6.7734      2.5266
C      8.0803      3.4970     15.7697
C     16.1312      4.1065     -7.3992
C      6.1625     -3.2314     11.4592
C      3.2897      7.4052      6.6201
C     19.1966      1.7962     -8.9930
C      6.2285      9.3503      8.7476
C     13.6285      8.8831      0.9138
C      9.3274     12.2616     -0.3351
C      8.2392     13.8752      0.9281
N      0.6863      2.5038      6.1407
H      6.1498     -4.1634     10.8811
C     13.8493      6.3713      0.7838
O     -1.0318      3.0278     14.2712
C      3.1968      4.2409      7.4911
H     12.4743      7.9904     -2.6119
C     15.6663      6.4171     -8.3015
C      3.4088     -2.2707     16.5376
H     -2.7847      3.1338      5.9462
C      3.7543     -3.6369     16.1538
H      6.0098      7.6487     10.1411
H      6.1689     -2.2038     10.6549
H     19.1002      3.3834     -7.4857
H      4.1354      5.6021      8.8557
H     -0.8257      5.1734      6.9807
C      3.2008      2.8691      7.9653
H      8.9081     11.2284     -2.2014
H     20.0302      0.9125     -8.7858
C      7.8967     12.2609      8.3840
C      8.9754     10.9893     -1.0149
C      6.4862      5.7458      9.7498
H      2.0519     12.9398      8.8844
H     15.0216      5.3657     -3.8028
C      6.7753      2.9903     15.9869
H      5.3027      4.1929      9.0618
H      4.5037     11.3161      9.3749
H     16.1621      6.5314     -3.4971
C      3.9887     -2.1285     17.7331
C     10.1603      8.5183      5.0231
O      1.9769      8.7367      5.2968
C     11.7669      7.9442     -5.6218
C      8.7648      7.9648     -0.7082
C      7.5338     -5.3147     12.8863
C      6.5006      6.4395     12.1778
H      5.1515      4.5158     14.9502
H      6.4892      3.6966     12.1162
H      4.3652     -3.0532     14.0994
H      1.7449     -1.8274     18.7956
H      8.6331      7.6621      8.7487
C      8.4765      2.8578      8.5450
H      1.2633      1.5614     14.3272
C      7.1246      5.6905     10.9985
C      8.0680      5.9652     16.3184
H      8.7111      7.6725     15.9694
C     -0.9520      6.6577      5.3379
H      3.5334      8.1369      8.3144
H      3.4983     -1.2826     15.7814
H     16.6687      6.3676    -10.2995
H      3.0065      4.6634     10.3427
H     15.7299      5.2170    -11.9896
C      9.6895     11.6568      7.0027
C      6.7714      4.8166      8.6112
C      2.9807      7.8322      5.2252
C      9.2101     14.7253      1.3026
C      5.5134      4.2355     12.5086
C      4.5132     -3.8156     14.8772
H      9.3259      8.1678      5.5325
H      8.7336      9.1755      3.5337
H      3.8544      0.7598     10.3096
H      7.1125      9.2714      9.4480
H     18.2067      0.9124     -7.2664
C     -0.3922      3.1238      8.2223
H      7.9623     -3.3495     15.3770
C     13.4303      8.4899     -0.5323
C      1.8724      2.0968      8.1426
H     10.8875      6.5253     -1.9330
H     10.1295      9.5784     -1.9014
C     12.7065      6.3497      1.6169
H      5.7227      7.1386     11.9832
H     -1.4276      2.0232      5.3928
H      8.8634      7.7557      7.1853
C     10.0903      7.3550     -0.0544
O     15.6265     10.4699      0.8679
C      7.0007      8.6998      7.5365
C      4.0313      8.4017      7.2427
C      3.5909      1.3406      9.5534
C      3.4324      0.4439     18.0092
H      7.3573     -1.8645     14.5842
H     20.0394      0.8109     -6.1174
H     -2.2844      5.1894      6.5487
H      6.2378      7.2022      8.5582
C      4.2523      3.3742     16.2756
C     10.5205      8.5902      0.8548
C     11.3664      6.8318     -0.7788
H      8.5812      2.0436      9.2983
C     18.3847      2.5803     -7.6928
H      2.1941     11.2235     10.0157
H      5.3652     -0.5832     18.3556
C      2.4290     11.7054      8.9062
C      4.3586     10.8868      7.3775
C     -1.9680      5.2087      3.9133
C      3.9009      9.6899      6.7359
C      2.9798      3.7026     15.7712
C      5.7731      6.8396      9.4471
H      1.7377     11.3467      7.9350
H     15.4813      7.8465      0.3709
H     12.6597     11.2148      1.6657
H      8.5888      6.4052     17.9652
H     10.3580     12.6547     -0.1643
H     15.5961      3.1298    -12.3418
O     18.3097      6.7196     -6.6946
C      0.6020      8.1274      4.7851
H      4.0246     11.7695      6.4852
C      9.9371      8.5438      3.4939
C     10.6384      7.3917      2.8617
H      8.3425     10.2159      7.9434
H      8.9991      3.1269     16.1461
C     10.4939      8.3901     -5.0359
H      1.6110      2.3639      4.4117
H     11.1848     11.1198     -1.5223
H      5.5184      4.8424     10.5211
C      2.8906      1.0695     15.1698
C     12.7170      8.6091    -10.7497
O      4.8608      4.5604     11.1118
O      7.0458      3.4354     10.4727
C      0.1150      3.3346     14.5741
C      0.0498      4.0102      4.2840
C      7.0564     10.9696      6.7501
H      8.2435     10.2989     -1.0052
H      3.1042     10.0876      6.1516
H     11.8602      9.1829     -8.9366
H     11.8448      8.9700     -1.6334
O     12.8969     10.1976     -7.5308
C      6.0113     10.9268      7.9679
C     13.7777      7.0754     -5.9551
C     14.6416      7.7022      1.1997
H      2.8553     -4.2445     15.6862
C     13.4337      7.7203     -9.8106
H      8.4634     13.3222      8.1198
C      2.1298      0.0587     17.4010
C      0.6754      2.7461      7.5581
C     10.8998     11.0496      6.4992
C     -1.9434      3.0074      5.4840
C      4.1958     -0.7296     18.2986
C      2.5600      3.4059     10.1434
C      0.8830      2.2449     14.8598
C     11.6037      7.6628      1.7154
C      3.8043     11.7406      8.5953
N      1.3440     -0.8651     18.3469
C      2.6014      0.5517     13.7164
C      9.6658      6.2557      0.6213
H     18.6208      9.7856     -7.5046
C     -2.3868      4.3898      2.8095
C     10.2845      8.0921     -3.6712
H      9.2226      3.7154      8.3840
H      2.7817     -0.0338      6.9420
C     10.7813      9.8696      0.2009
H      4.7816      6.8602      9.5781
H     14.7159      6.9911     -3.4579
H     12.5031      9.4583    -10.1008
H     15.0721      7.7678     -1.7922
H      2.5264     -0.4018     13.7006
H     -0.6085      2.6935      9.1871
C     14.8502      7.4902    -10.2065
H      1.8733      0.9998     13.2377
C     14.5726      8.5859     -1.3345
C      6.0694     -2.8778     12.6359
H      7.7319      4.8903     11.4621
C     10.4329     10.4007     -1.1990
H      0.4089     -0.4303     18.6955
C     16.9825      8.3752     -8.4425
C      7.6855      7.2368     15.5222
C      7.8859     -3.0696     14.3501
C      5.9423     -4.1149     14.8260
C     17.1553      6.1554     -6.3506
C     15.1197      5.1647    -10.2810
C      5.9366      5.4655     13.2518
C     18.2918      7.6468     -8.8561
C      7.8967      6.8860     14.2431
H     15.2352      9.5559     -0.7714
C      4.1892      5.1998      7.7621
O     13.8354     11.4766      1.4860
C     14.7690      5.1494    -11.8300
H      9.9251      8.6941     -5.7436
C     19.0500      7.3194     -7.7358
H     -0.0478      1.8014      5.9427
H     10.0848     14.4292      0.5880
H     -2.5473      4.9285      1.6714
C      7.2274      5.5557     14.2520
H     -0.2134      3.2380      3.5172
O     20.2979      7.3625     -7.6078
H      7.8413      8.8567     -2.4033
H      9.6555      8.4960      1.2365
H     14.0291      4.1595    -13.6656
H     17.4173      5.3181     -8.5101
C     12.2731      7.9452     -1.3062
H      5.4914      3.3425      8.1124
C     15.7531      6.5638     -9.7992
C     -1.1287      4.3393      4.9509
C      0.5400      6.9209      5.4392
H      5.3077      9.2003      9.1168
C     14.4798      5.8071     -7.9379
H      1.2534     -0.8951     15.6048
H     11.0199      7.0356     -3.5816
C      7.9464      7.5734      7.7266
C      4.2724      0.5776      8.2717
C     19.2349      7.8717    -10.0749
C     10.0646     10.0719      5.3931
C     12.7944      6.3787     -9.9040
C     -1.4114      6.4424      3.6647
H     10.2099     12.6698      7.3311
H     15.6928      4.0772    -13.7343
H      4.0538     -4.7328     14.4371
H      4.5184      3.9555     13.1939
H     -2.6127      3.1334      4.7137
C      2.0994      1.2551      9.3685
H     11.0450     11.9890      5.8132
C     13.6761      5.2670     -9.3119
C      5.4521      3.6336     15.3902
H     14.0157      4.7088     -4.8500
H      5.2539      8.1521      7.4010
C      7.4322      3.5848      9.3079
H     11.2295     11.8939      1.0337
H      6.5568     11.4761      6.0407
C     15.3168      6.3386     -3.8817
C     -1.2903      5.4007      6.0644
C      1.8897      0.1885     16.1075
C     14.6698      4.4049     -7.1452
C     14.9937      6.5821     -5.3267
C     14.7985      3.8320    -13.0063
H     12.2577      5.3415      1.0381
H      3.9046      0.8315     15.2856
H      8.9684      9.4877     -3.3412
H      3.1947      1.2197     13.0250
H      7.4494      6.6537      7.9379
H     20.0527      2.2284     -4.9044
H     10.1229     10.3568      4.4906
C      8.0811     12.5037      0.2621
H     18.5914      1.4548     -9.6721
C     12.3509      8.9496     -7.9592
C      9.5155      8.8627     -2.9540
H      8.7134     -2.5049     13.9047
C      8.3122     11.2952      7.3704
H     -2.3929      3.4508      2.7489
C     12.9930      7.7978     -5.1785
C      1.0436      3.2672      4.9303
O      8.6378      5.7462     17.3532
C     11.5705      8.0734     -7.0993
C     19.2526      1.5052     -5.4577
C     18.3478      1.7371     -6.5635
C      3.0211      0.9055      6.4624
H      4.5197      3.3069      9.9233
H      8.5013     11.8946      9.3172
H     12.5111     10.4257     -6.6604
H      3.4838      1.7065     17.8437
H     12.8725      7.3826     -4.1266
C     14.8525      4.8833     -5.7124
H      0.6218      4.3595     15.1153
C     16.7174      5.3079     -7.6599
C      3.7278      2.7729      9.3996
H      7.1926     12.2723     -0.4771
H     13.5079      6.4305     -0.4438
C      8.6079      8.5866     -1.9155
H      2.5047      2.6742     10.8634
H      6.9430      5.2408      7.5342
H     11.4856      5.8646     -0.3320
C     16.9487      3.0134     -8.2606
C     17.5403      9.6761     -7.5184
C      6.4592     12.1450      8.6442
C      6.8696      9.5458      6.4806
C      5.4280      4.4088      8.0980
C     18.6031      0.4907     -4.6501
H     -0.9022      3.7288      7.6907
H      6.4593     -2.0293     13.2162
H     10.0427      5.2881     -0.0084
C     14.4410     10.3581      1.0665
H      1.5476      3.4622      9.5885
H     10.4032      9.4980      3.1042
