282

C      6.9934     -4.0143     13.8680
N     10.8639     10.6514      1.3310
C      4.1057     14.4247      7.2702
C      2.2602      2.2500     15.4196
H      1.1699     14.0517     10.0728
C      7.7958      5.0294     15.5225
H      9.8220      5.9401     14.5114
C      7.8162      3.8265     16.4373
C      3.3198     17.0513      5.6280
C      6.3654     -3.2459     11.3618
C      3.2613     20.4021      6.7502
C      6.2472     15.1776      4.4073
C      6.3646     22.3663      8.8376
C      0.8098     21.6976      0.7742
C      8.6622     12.1892     -0.3230
C      8.0763     14.0022      1.0426
N      0.5755     15.3459      6.1449
H      5.8384     -4.1247     10.9424
C     13.8991      6.3903      0.7199
O     -0.9941      3.0303     14.0519
C      3.3373     17.0413      7.2774
H      0.0395     19.9130     -2.0895
H      7.5747     13.7420      2.2330
C      2.8232     19.2528      4.5193
C      3.4462     -2.3882     16.5768
H     10.6226      2.4136      6.0436
H      5.8294     19.3714     14.8499
C      3.6840     -3.6520     15.9809
H      5.1280     19.7663      8.5883
H      5.9737     -2.4720     10.5301
H      5.9067     16.6851      5.3177
H      3.9093     18.6287      8.3754
H     12.4179      5.5240      6.6107
C      3.5172     15.6505      7.8823
H      9.4708     11.9050     -2.0876
H      7.0943     14.9826      4.8032
C      7.7503     12.0670      8.8438
C      9.3487     11.2880     -1.2809
C      6.6003     19.0235      9.9737
H      1.7534     25.5993      8.9043
H      1.4912     18.4156      8.5867
C      6.5075      3.3503     16.4288
H      5.2852     16.7267      8.6480
H      4.0532     24.4218      9.0368
H      2.5769     19.7340      9.1825
C      4.1708     -1.8130     17.7496
C      9.8710      8.6293      4.8320
O      2.0320     21.6397      5.1004
C     11.5863      8.4185      6.8869
C      8.6991      8.2033     12.3399
C      7.4138     -5.2130     13.0988
C      6.6012     19.7777     12.2105
H      5.0822      4.6908     14.8766
H      6.7212     17.0493     12.1539
H      5.2042     -2.3707     15.2418
H      1.6987     -1.3945     19.0336
H      8.6086     19.8108      8.2373
C      8.1921     15.9420      8.3570
H      0.8254      1.4930     14.4102
C      7.2819     19.2552     10.9798
C      8.1134      6.1858     16.2410
H      7.7296      8.6137     15.5739
C     11.8457      6.6535      5.1534
H      3.5249     21.6644      8.4749
H      2.9032     -1.7043     16.0883
H      3.6418     19.3531      2.3004
H      3.2601     17.9257     10.5048
H     16.0990      5.8874      1.1542
C      9.5884     11.2845      7.3208
C      6.8244     17.8980      9.0470
C      3.1484     20.6203      5.2876
C      9.2838     14.5015      1.0266
C      5.7084     17.4314     12.5605
C      4.7075     -3.4568     14.9937
H      9.1213      7.8101      5.1095
H      9.4246      8.3325      2.9546
H      3.6884     13.4392     10.4306
H      7.3148     22.1004      9.5674
H      5.5805     13.6837      5.8076
C     -0.0695     16.2529      8.2803
H      8.3936     -2.7261     14.9859
C      0.6371     21.2340     -0.7837
C      1.8602     15.1075      8.0800
H     -2.2317     19.2183     -2.1087
H     11.1379     10.2926     -1.8236
C     12.6067      6.2207      1.5616
H      5.7086     20.4003     12.0327
H     11.1639      1.9624      4.7267
H      8.2055     19.9382      6.7372
C     10.1481      7.4481     12.5987
O      2.5909     23.3010      0.7128
C      7.2462     21.5596      7.8337
C      4.0161     21.5465      7.5803
C      3.6187     14.2047      9.6485
C      3.6160      0.3072     17.8735
H      7.5358     -1.8098     13.6444
H      7.0049     13.2866      6.7137
H     10.7554      5.8875      6.3572
C      4.1411      3.5747     16.3559
C     10.7411      8.3998      0.5437
C     -1.6840     19.8449     -1.2348
H      9.1075     15.4686      9.0690
C      5.5441     15.6901      5.4912
H      2.0928     23.7213      8.4238
C      2.1900     24.7795      8.1834
C      4.4492     23.9647      7.3639
C     10.6607      4.8966      3.5114
C      3.6711     22.6384      6.8011
C      2.6980      3.5194     15.9220
C      5.2811     19.8652      9.7363
H      1.6419     24.6219      7.3066
H      2.6221     20.6866      0.6690
H      0.7385     24.7115      0.4941
H      9.5341      6.5990     17.4094
H      9.4266     12.7512     -0.0059
H     16.3878      3.9400      0.5014
O      5.5647     19.8071      6.2833
C      0.8045     20.9979      4.6024
H      5.0131     24.5112      6.5407
C     10.3253      8.6251      3.2921
C     11.1267      7.4957      2.7792
H      8.5393     10.2117      8.3543
H      8.6718      3.0686     16.2684
C     10.5519      8.6349      7.8345
H      9.9177     15.2087      1.7738
H      1.8295     15.5913      4.1543
H     11.3476     11.5586     -1.0180
H      5.0985     18.8684     11.3339
C      2.9593      0.9267     15.1396
C     -0.2149     21.4693      1.9712
O      5.1118     17.8411     11.5532
O      7.9614     16.4579     10.6919
C      0.2037      3.4453     14.6226
C     12.7514      4.0912      3.9720
C      7.0063     23.5776      6.9562
H      8.4989     10.6629     -1.6417
H      2.6144     22.7240      6.6046
H     -0.7776     21.9586      3.8922
O     -0.2799     23.1116      5.5292
C      5.9748     23.5627      8.0655
C     13.4221      6.8979      6.7703
C      1.5448     20.5404      1.0498
C      0.7148     20.6551      3.0830
H      8.0906     13.0551      8.8844
C      2.3645     -0.2353     17.2429
C      0.7564     15.7145      7.5700
C     10.3754     10.8485      6.3639
C     10.7192      2.9278      5.1111
C      4.6223     -0.4801     17.7170
C      3.1268     16.7471     10.0076
C      0.8596      2.3249     15.1739
C     11.6758      7.5844      1.5564
C      3.6508     24.8866      8.1307
N      1.4687     -0.5931     18.1633
C      2.5585      0.9190     13.5102
O      5.2380     19.3643     14.0693
C      9.2892      6.5733     13.6272
H      5.4799     22.1930      5.9938
C     10.4695      4.1121      2.4286
C     10.7507      8.2798      9.1815
H      8.8984     16.1271      7.5758
H      1.9514     13.9844      6.2770
H      8.1073     21.7934      5.6952
C     11.1232      9.8880      0.2523
H      5.3638     20.9066     10.0090
H      0.9699     20.0330      9.1640
H     -0.4425     22.2553      2.6538
H      2.3190     21.6214     -2.2947
H      1.8481      0.2640     13.8587
H      0.4538     16.7253      9.2048
C      2.0686     20.5718      2.4557
H      2.2758      1.8916     13.4019
C      1.8783     21.4815     -1.2969
C      6.1175     -2.9870     12.8011
H      8.1235     18.4826     11.1932
C     10.6344     10.7567     -0.9841
H      0.5075     -0.6685     17.8575
C      4.2620     21.2770      4.4641
C      7.6028      7.3570     15.6118
C      7.9047     -2.9753     14.1908
C      5.8859     -4.2511     14.7708
C      4.2025     19.2415      6.5669
C     14.8027      4.8879      2.6353
C      6.2178     18.6670     13.2366
C      5.4522     20.3906      3.9683
C      8.0349      6.9103     14.1769
H      1.8837     22.3968     -0.6647
C      4.3514     18.2283      7.6148
O      0.4650     23.8720      0.4498
C     15.0347      5.2918      1.0701
H      9.6677      9.2788      7.6537
C      6.1502     20.0592      5.1261
H     -0.2516     14.7839      5.6043
H      9.6957     14.6852     -0.0302
H      9.8611      4.5665      1.4221
C      7.3306     18.5629     14.2686
H     12.5312      3.0974      3.2258
O      7.4451     20.2354      5.0076
H      7.6689      8.2166     10.7913
H     10.1708      8.7888      1.3968
H     14.5592      3.3053     -0.2912
C     -0.4559     20.7878     -1.5653
H      6.0440     16.6127      7.5109
C      2.8863     19.3865      3.0247
C     11.5483      4.3536      4.7047
C     13.5462      6.8016      5.3113
H      5.3160     22.2870      9.1871
H      2.8852     15.1739      5.8988
C      1.4792     18.5817      4.7791
H      1.3748     -0.7148     15.5656
H     11.2078      7.1305      8.9823
C      7.7653     20.1699      7.6225
C      4.1574     13.4450      8.4418
C      6.2030     20.5525      2.8473
C      9.6735     10.2206      5.2074
C     -0.0108     19.3229      3.0828
C     11.2812      6.4198      3.5537
H     10.2165     11.9700      7.8439
H     15.5024      4.8105     -0.8520
H      4.6830     -3.4895     13.6009
H      4.8428     17.1447     13.2083
H      9.7390      3.2065      4.6867
C      1.8625     14.4945      9.2223
H     11.2934     11.1022      6.3136
C     13.6634      5.2086      3.6420
C      5.2887      4.0212     15.8776
H      1.1399     17.7947      7.6173
H      5.1024     21.0490      7.7983
C      7.7637     16.8789      9.5564
H     10.5923     11.5025      1.0767
H      6.3276     24.1596      6.3166
C      1.8651     19.4468      8.6808
C     11.5042      5.4964      5.8928
C      2.0436      0.2306     16.0285
C      1.8597     17.3675      5.5932
C      2.0176     19.4827      7.2054
C     15.3921      4.1900      0.1037
H     12.3979      5.2833      1.2365
H      4.1028      1.0703     15.4373
H      8.8065      9.0867      9.1856
H      3.0359      0.2892     12.5955
H      6.9921     19.5767      7.4473
H      7.4641     15.1016      8.3402
H      9.9723     11.1164      4.5428
C      7.5644     12.6550      0.4173
H      5.7271     14.3683      4.0083
C     -0.5213     21.8046      4.8483
C      9.4911      8.5718      9.9939
C      8.2937     11.1654      7.8106
H      8.5253     10.3657      5.1150
C     12.5661      7.5460      7.5464
C      1.1760     16.0963      5.1363
O      8.9012      5.7724     17.3141
C     11.3402      8.0727      5.4393
C      6.4379     13.8241      7.4247
C      5.6269     14.4935      6.5619
C      3.0012     14.1475      5.9801
H      5.1590     15.4367      9.3554
H      8.3076     11.7925      9.7123
H     -0.7357     22.9101      6.3211
H     12.4791      7.4874      8.6175
C      2.0046     17.8667      7.0482
H      0.9781      4.2186     14.3647
C      3.9049     18.4341      5.2059
C      3.8705     15.6163      9.4130
H      6.4080     12.7977      0.4305
H     13.5698      6.0400     -0.2033
C      8.7872      8.1334     11.0076
H      2.6516     16.4259     10.8876
H      7.6506     18.2815      8.4119
H     -1.4061     18.9080     -0.8497
C      3.9760     15.9684      4.7282
C      4.4463     22.6465      5.4553
C      6.3908     12.2201      9.3231
C      7.4524     22.0700      6.6881
C      5.5432     17.5534      8.2345
C      5.7552     13.2514      8.4079
H      6.0592     -1.9763     12.9350
H      9.1461      5.8973     12.8488
C      1.4089     22.9965      0.7307
H      2.5038     16.9776      8.9067
H     10.1842      9.5462      2.7973
282

C      6.8871     -3.9520     13.8181
N     10.8600     10.6930      1.2263
C      4.1165     14.4255      7.3459
C      2.2533      2.3267     15.3532
H      1.5120     14.1496      9.9732
C      7.8080      5.0527     15.5233
H      9.7182      6.2671     14.4445
C      7.8057      3.8237     16.2749
C      3.3220     16.9725      5.6912
C      6.2277     -3.2349     11.3452
C      3.1717     20.3774      6.7210
C      6.3077     15.2424      4.3104
C      6.3138     22.3267      8.7484
C      0.8036     21.6782      0.7043
C      8.6565     12.1694     -0.1930
C      7.9821     13.9996      1.0170
N      0.5962     15.2965      6.1787
H      5.9898     -4.2313     10.9884
C     13.8211      6.2527      0.7777
O     -0.9825      3.1013     14.0598
C      3.4041     17.0313      7.2992
H     -0.2673     20.1428     -2.2768
H      7.6253     13.9097      2.1281
C      2.8459     19.2284      4.4073
C      3.4517     -2.3286     16.4749
H     10.5590      2.6799      6.3069
H      5.8607     19.4673     14.9066
C      3.7467     -3.6986     16.0010
H      5.3621     19.9579      8.5368
H      6.3398     -2.4006     10.7319
H      6.0159     16.5437      5.3618
H      3.7699     18.7403      8.6965
H     12.1913      5.5526      6.7423
C      3.4550     15.5763      7.9692
H      9.7774     11.9292     -2.0506
H      7.0126     14.4759      4.7953
C      7.7584     12.1331      8.8525
C      9.3907     11.2158     -1.2064
C      6.4646     19.0503      9.8452
H      1.8349     25.7533      8.4908
H      1.6895     18.3169      8.7420
C      6.4704      3.4902     16.4014
H      4.9553     16.7631      8.9953
H      3.9537     24.9034      9.2523
H      2.8231     19.7816      8.8836
C      4.0928     -1.8813     17.6845
C      9.9009      8.5807      4.7448
O      1.9731     21.6279      5.1076
C     11.5632      8.2961      6.8631
C      8.6931      8.2535     12.2927
C      7.5177     -5.2442     13.1356
C      6.6171     19.7607     12.2152
H      5.2172      5.0715     15.0318
H      6.5142     16.6717     12.3941
H      4.9216     -2.4323     15.4933
H      1.6970     -1.2965     18.8788
H      8.4988     19.8722      8.2459
C      8.1483     16.0356      8.3336
H      0.8841      1.1275     14.8605
C      7.3273     19.4041     10.9009
C      8.1480      6.1209     16.2276
H      7.5432      8.4895     15.5695
C     11.7580      6.6156      4.9976
H      3.5503     21.6740      8.5827
H      3.2083     -1.7248     15.3678
H      3.9843     19.5052      2.2900
H      3.5703     17.6212     10.5318
H     15.9790      5.9570      0.9463
C      9.6360     11.3174      7.3896
C      6.7574     17.8617      8.9998
C      3.0491     20.5652      5.3218
C      9.2289     14.4924      1.0910
C      5.7297     17.4250     12.6232
C      4.6788     -3.5189     14.9733
H      9.3595      7.8680      5.2360
H      3.7627     13.8036     10.4346
H      7.1115     22.2691      9.6447
C     -0.0619     16.2952      8.2309
H      8.1561     -2.5934     15.2307
C      0.6682     21.1425     -0.7695
C      2.0116     15.0416      7.9870
H     -1.9220     19.3249     -2.2164
H     11.0690     10.3822     -1.9495
C     12.6593      6.3451      1.6572
H      5.3930     19.9224     11.7069
H     11.0751      2.0233      4.6822
H      8.0907     20.1573      6.3520
C     10.1549      7.5075     12.5371
O      2.5604     23.3247      0.7308
C      7.2247     21.5820      7.8012
C      3.9402     21.4038      7.5661
C      3.5711     14.2379      9.5474
C      3.5867      0.3469     17.8931
H      7.6601     -2.0882     13.4267
H      6.9421     12.9591      7.2166
H     10.4116      5.8497      6.0808
C      4.0474      3.5979     16.3549
C     10.8262      8.4824      0.4831
C     -1.6587     19.8978     -1.2046
H      8.9077     15.3349      9.0861
C      5.4987     15.6412      5.4547
H      2.1502     23.7880      8.3592
C      2.0850     24.8169      8.2100
C      4.6174     23.8857      7.4120
C     10.6693      4.9054      3.5564
C      3.7463     22.6971      6.7866
C      2.6788      3.4992     15.8644
C      5.3479     19.8707      9.7774
H      1.4775     24.5448      7.1902
H      2.5361     20.8191      0.6872
H      0.6775     24.8013      0.2991
H      9.9356      6.3412     17.2631
H      9.5901     12.8072     -0.1274
H     16.4453      4.0091      0.2549
O      5.5845     19.8282      6.3224
C      0.7313     21.0820      4.6410
H      4.8538     24.5264      6.5578
C     10.4218      8.6007      3.3483
C     10.9625      7.5714      2.7115
H      8.3424      9.8416      8.0565
H      8.6955      3.1194     16.1643
C     10.5526      8.6498      7.7921
H      9.8301     15.2165      1.5775
H      1.8127     15.4331      4.5553
H     11.1190     11.6571     -0.4726
H      4.8832     18.8675     11.5441
C      2.9934      0.9526     15.0218
C     -0.1185     21.5298      1.9277
O      5.0982     17.8630     11.5759
O      7.9158     16.3892     10.6768
C      0.2040      3.5221     14.5473
C     12.7023      4.1185      4.1096
C      6.8950     23.6323      6.9566
H      8.4262     10.6696     -1.5027
H      2.7373     23.1182      6.7329
H     -1.1036     21.8878      3.9898
H     11.7094      8.7851      9.7221
O     -0.3797     23.0319      5.5780
C      5.9069     23.4947      8.0767
C     13.4777      6.8931      6.7928
C      1.6431     20.5223      0.9873
H      2.6685     -4.2892     15.4722
C      0.8066     20.5750      3.0011
H      8.0593     13.1469      8.5608
C      2.4386     -0.2494     17.2587
C      0.7383     15.6302      7.5594
C     10.3432     10.9249      6.3468
C     10.5630      2.9133      5.1709
C      4.7344     -0.5046     17.7125
C      3.1446     16.7822      9.9876
C      0.8290      2.2694     15.3137
C     11.7464      7.6057      1.5563
C      3.6560     24.9071      8.0631
N      1.4954     -0.6387     18.2074
C      2.5130      0.8797     13.5102
O      5.2356     19.3200     14.0205
C      9.3026      6.6232     13.6266
H      5.5346     22.2472      5.9402
C     10.4656      4.1441      2.3946
C     10.7694      8.2088      9.2197
H      8.8970     16.1091      7.5525
H      2.1941     13.5845      6.3326
H      8.0377     21.8676      6.0574
C     11.1044      9.8590      0.2681
H      5.3765     20.8864      9.9519
H      1.0879     20.0765      8.8657
H     -0.5135     22.3189      2.6865
H      2.2621     21.0390     -2.2224
H      1.7047      0.1806     13.6817
H      0.2534     16.5097      9.2011
C      2.0688     20.5421      2.4498
H      2.3689      2.1136     13.2924
C      1.9825     21.5160     -1.3116
C      6.1402     -2.9548     12.7293
H      7.9638     18.6125     11.0552
C     10.7432     10.6504     -0.9604
H      0.5199     -0.6147     17.9195
C      4.2836     21.2555      4.4945
C      7.6291      7.4106     15.4683
C      7.8646     -2.9765     14.1812
C      5.8790     -4.3036     14.8153
C      4.3070     19.1404      6.5536
C     14.9479      4.8756      2.6702
C      6.3132     18.6468     13.2033
C      5.3925     20.4658      3.9914
C      8.0208      6.9399     14.1419
H      2.0757     22.4183     -0.5415
C      4.3412     18.1829      7.6534
O      0.4635     23.8539      0.4676
C     14.9795      5.2697      1.1087
H      9.5210      8.9321      7.8606
C      6.2123     20.0805      5.1403
H     -0.1222     14.5925      6.0245
H      9.5495     14.6102      0.0196
H     10.0283      4.7062      1.7413
C      7.2800     18.5664     14.2122
H     12.4306      3.7046      3.1089
O      7.3900     20.1830      4.9720
H      7.5365      8.4392     10.6602
H     10.1628      8.9465      1.1453
H     14.6730      3.5514      0.1277
H      5.0102     18.4054      4.8160
C     -0.4497     20.8070     -1.4801
C      2.8324     19.3364      2.9809
C     11.4352      4.3905      4.7422
C     13.6242      6.8915      5.2701
H      5.4628     21.9958      9.3470
H      3.0903     15.1516      5.5308
C      1.4881     18.6056      4.8026
H      1.4000     -0.5478     15.4823
H     10.9861      7.1723      9.3175
C      7.8282     20.2255      7.5279
C      4.1976     13.4941      8.4765
C      6.2549     20.5846      2.8404
C      9.8000     10.1246      5.2695
C     -0.0906     19.3390      3.0108
C     11.3008      6.4000      3.6064
H     10.0483     11.9890      8.2431
H     15.2642      4.5403     -0.9837
H      4.6327     -3.6804     13.9432
H      5.0120     16.9818     13.2352
H      9.6265      3.2701      4.9105
C      1.9568     14.4262      9.2338
H     11.2502     11.0516      6.3370
C     13.7106      5.2599      3.5748
C      5.3545      4.2336     15.9224
H      1.1958     17.3931      7.3972
H      4.8900     21.0674      7.6268
C      7.6746     16.9596      9.5228
H     10.6690     11.6516      1.0858
H      6.3589     24.2719      6.2260
C      1.8285     19.4624      8.7563
C     11.3984      5.4666      5.9234
C      2.0466      0.1086     16.0164
C      1.8762     17.3588      5.5936
C      2.0217     19.4238      7.2136
C     15.3758      4.3364      0.0763
H      4.0568      1.1651     14.8782
H      8.9549      9.0373      9.2208
H      3.0980      0.4888     12.6358
H      6.9441     19.3049      7.3882
H      7.5291     15.0464      8.4823
H     10.1210     10.9718      4.4645
C      7.5601     12.5638      0.4348
H      5.6984     14.3068      3.7837
C     -0.4096     21.7931      4.7782
C      9.5693      8.5646      9.9641
C      8.2106     11.0229      7.8667
H      8.6833     10.4417      5.2189
C     12.4732      7.5705      7.6359
C      1.1231     16.1388      5.1054
O      8.9995      5.8126     17.3407
C     11.4339      8.1040      5.4271
C      6.4421     13.8394      7.5115
C      5.5686     14.4687      6.5555
C      3.1386     14.1544      6.0201
H      5.0017     15.5148      9.2527
H      8.0212     11.7033      9.7819
H     -0.7681     22.8085      6.4046
H     12.8799      7.5421      8.6848
C      1.9333     17.8268      6.9803
H      0.7449      4.3123     14.1220
C      3.9348     18.4530      5.2019
C      3.9582     15.5636      9.3900
H      6.5477     12.8710      0.1623
H     13.3305      6.1841     -0.1507
C      8.7045      8.1058     11.0182
H      2.6626     16.5318     11.0130
H      7.4648     18.2826      8.2878
H     -1.3194     18.9699     -0.6503
C      4.0377     16.2062      4.6856
C      4.4510     22.6942      5.4248
C      6.3255     12.1191      9.2686
C      7.3316     22.2261      6.6724
C      5.5168     17.5581      8.2204
C      5.7054     13.1891      8.4812
H     -0.9772     16.2812      7.8116
H      6.0839     -2.0894     13.2962
H      9.0668      5.7574     12.7237
C      1.4677     23.0138      0.6552
H      2.3096     17.2145      9.2774
H     10.5643      9.6222      3.0500
282

C     -6.1670    -16.9545     13.5608
N     -2.1123     10.7152      1.2843
C      4.2118      1.7207      7.2694
C    -10.6526    -10.5978     15.3757
H      1.1538      1.4312      9.8474
C     -5.0744     -7.7814     15.5112
H     -3.0991     -6.9736     14.5203
C     -5.2433     -9.2146     15.7938
C      3.4475      4.1982      5.6650
C     -6.9177    -16.0717     11.4446
C      3.0875     -5.6086      6.6707
C      6.2962      2.3719      4.2436
C      6.3236     -3.5516      8.8488
C      0.7742      8.6777      0.7336
C     -4.0801     12.3027     -0.1890
C     -4.9694     14.1115      0.9534
N      0.5247      2.4748      6.2412
H     -6.9290    -16.8464     10.8938
C      0.8545      6.1798      0.7072
O    -13.6572     -9.7150     13.9860
C      3.1458      4.1844      7.2347
H     -0.0590      7.4647     -2.4193
H     -5.5496     14.3776      1.9231
C      2.8942      6.4682      4.3846
C     -9.4507    -15.2572     16.3441
H     -1.8874      2.6000      6.1165
H      5.5554      7.1698     14.3896
C     -9.1496    -16.5799     16.0452
H      5.5272      7.4989      8.7984
H     -6.6844    -15.0267     10.7064
H      6.1787      3.3999      5.7986
H      3.9030      6.2678      8.2689
H     -0.8957      5.4937      6.7068
C      3.3227      2.8228      7.9410
H     -3.7300     11.8686     -2.2287
H      7.0353      1.8318      4.3979
C      7.8635     -0.7606      9.0438
C     -3.5039     11.1405     -1.2579
C      6.4605      6.0451     10.0231
H      1.5494     -0.1897      8.8023
H      1.9709      5.5575      9.1656
C     -6.3450     -9.2835     16.5250
H      5.2705      4.3889      9.3786
H      3.8109     -1.1028      9.4085
H      2.7731      7.3208      8.7323
C     -8.8759    -14.9498     17.6258
C     -2.8532      8.6203      4.9375
O      2.0351     -4.2119      5.1462
C     -1.5857     -4.7355      6.8163
C     -4.0168     -4.7524     12.2679
C     -5.2599    -18.1887     13.1213
C      6.6515      6.8059     12.2869
H     -7.1661     -7.6569     15.2365
H      6.6644      3.6056     12.2004
H     -7.6975    -15.5704     15.0518
H    -11.3423    -13.9237     18.8364
H      8.9628     -5.7536      8.3609
C      8.0734      3.0706      8.5339
H    -12.7503    -11.4214     14.6666
C      7.3986      6.1851     11.1048
C     -4.8154     -6.7677     16.2819
H     -4.5597     -4.5034     15.9780
C     -1.3635      6.5345      4.8510
H      3.4990     -4.5453      8.7228
H     -9.7043    -14.9814     15.2268
H      3.9856      6.5039      2.8243
H      3.8451      4.5597     10.2570
H      3.0185      6.3732      1.3643
C     -3.2192     11.4167      7.5268
C      6.7330      4.9597      9.0796
C      3.0139     -5.2278      5.2306
C     -3.6096     14.3469      1.1845
C      5.7584      4.2823     12.7058
C     -8.2405    -16.5118     14.8466
H     -3.7181      7.9626      5.0802
H      3.6838      0.7302     10.5783
H      7.2194     -3.5115      9.8162
C     -0.0265      3.3475      8.5850
H     -4.6801    -15.6486     15.3932
C      0.5064      8.4702     -0.7481
C      1.9584      2.1082      8.0721
H     -2.0087      6.3144     -1.9358
H     -1.4877     10.1298     -2.0992
C     -0.3721      6.0442      1.6387
H      5.8297      7.2020     12.1843
H     -1.7756      2.0341      4.7280
H      8.3792     -5.5964      6.6352
C     -2.8673     -5.4596     12.6632
O      2.5564     10.3615      0.5165
C      6.9791     -4.4972      7.6298
C      3.7141     -4.5657      7.4808
C      3.5240      1.2350      9.5661
C     -9.3233    -12.5942     17.6547
H     -5.2524    -14.8726     13.6033
H      7.4433      0.8331      7.1811
H      4.4338      6.7111     10.1206
C     -8.7067     -9.3024     16.3816
C     -2.1228      8.5511      0.6132
C     -1.7232      6.9339     -1.0985
H      8.9028      3.0362      9.1744
C      5.4745      2.5507      5.5502
H      2.0433     -1.5595      9.3364
C      2.1617     -1.0622      8.2787
C      4.4727     -1.9314      7.4252
C     -2.3255      4.9502      3.5288
C      3.6884     -3.1859      6.9131
C    -10.2498     -9.3107     15.8311
C      5.4173      7.0206      9.6902
H      1.4616     -1.6540      7.7268
H      2.4909      7.7209      0.2156
H      0.5950     12.0935      0.9546
H     -2.9889     -6.6845     17.2962
H     -3.2117     13.1421     -0.3862
H      3.3687      4.0391      0.0318
O      5.5702      6.8834      6.5753
C      0.8008     -4.7717      4.6545
H      4.8769     -1.3656      6.5558
C     -2.6614      8.5438      3.3344
C     -2.0114      7.4123      2.8527
H      8.4516     -2.5487      8.8692
H     -4.3182     -9.9191     16.0624
C     -2.2284     -4.1784      7.8834
H     -2.9921     14.8054      1.9442
H      1.7085      2.4343      4.5367
H     -1.6027     11.3693     -0.6630
H      4.2486      5.3600     11.6698
C    -10.1332    -11.9026     15.0274
C     -0.1463      8.4398      1.8643
O      5.1799      4.8481     11.4739
O      7.9316      3.5562     10.6304
C    -12.6870     -9.6734     14.6759
C     -0.1141      4.1455      4.0123
C      6.9403     -2.1389      7.1843
H     -4.3144     10.2232     -1.1731
H      2.8008     -2.5309      6.6092
H     -0.6763      9.1124      3.7654
H     -1.1640     -4.6049      9.9710
O     -0.3464     10.1538      5.4245
C      5.8528     -2.2968      8.1144
C      0.5829     -6.1093      6.7101
C      1.6807      7.5324      0.9329
C      0.7033      7.8811      2.8863
H      7.9349      0.4632      8.9632
C    -10.4530    -13.2082     17.1983
C      0.6783      2.7816      7.6092
C     -2.6527     10.9882      6.2689
C     -2.2705      3.0050      5.0792
C     -8.3662    -13.6647     17.7347
C      3.3493      3.7122     10.1177
C    -12.0255    -10.8204     15.3251
C     -1.1745      7.5238      1.5262
C      3.6039     -0.7563      8.2525
N    -11.5333    -13.6051     17.9358
C    -10.4115    -11.8329     13.5602
O      5.2294      6.4255     13.7918
C     -3.5081     -6.5780     13.6042
H      5.3969      9.8701      6.1591
C     -2.5371      4.1593      2.4292
C     -2.1491     -4.9167      9.3506
H      8.4898      3.4458      7.7389
H      2.1880      0.6650      6.7068
H      7.6687     -4.1101      5.7583
C     -1.9876      9.9356      0.1745
H      5.6593      7.6838     10.5573
H      1.0060      6.9063      9.2110
H     -0.6183      9.4255      2.2978
H      1.6670      8.3079     -2.3373
H    -11.0165    -12.6924     13.1877
H      0.3772      3.2379      9.5904
C      2.0965      7.6963      2.3164
H    -10.7403    -10.9657     13.2721
C      1.7775      8.4550     -1.3609
C     -6.6011    -16.0939     12.6087
H      8.4375      5.7092     11.1411
C     -2.2019     10.6496     -1.1569
H    -11.9225    -12.8620     17.9667
C      4.1420      8.5722      4.3491
C     -5.3030     -5.5365     15.5784
C     -4.8932    -15.7591     14.1883
C     -7.1097    -17.4008     14.7205
C      4.1119      6.1894      6.4679
C      1.9140      4.8815      2.4980
C      6.2262      5.5710     13.1438
C      5.4805      7.4437      3.9591
C     -4.8964     -6.0826     14.1795
H      2.5061      9.0706     -0.8050
C      4.3720      5.2605      7.7038
O      0.3147     10.9698      0.7157
C      2.1472      5.3960      1.0834
H     -3.2256     -3.6808      7.6765
C      6.1240      7.4235      5.2415
H     -0.2568      1.9369      6.0690
H     -2.7712     14.6227      0.4514
H     -2.8963      4.5057      1.5209
C      7.2214      5.6858     14.2117
H     -0.4609      3.2567      3.2695
O      7.4406      7.3521      5.1255
H     -5.2812     -4.7011     10.2961
H     -2.8717      8.8299      1.2078
H      1.3332      3.8165     -0.0706
H      5.1061      5.1924      4.7431
C     -0.5171      7.8518     -1.4758
C      2.9031      6.4616      2.8803
C     -1.5489      4.2441      4.7156
C      0.5683     -6.2342      5.2378
H      5.3827     -3.8692      9.1171
H      3.2271      2.1518      5.6361
C      1.6007      5.6705      4.6574
H    -11.4666    -13.5015     15.1812
H     -2.0562     -5.9905      9.1182
C      7.9927     -5.6188      7.7141
C      4.2521      0.5031      8.3811
C      6.3127      7.6283      2.7704
C     -3.0954     10.0906      5.1485
C     -0.0255      6.2904      2.9533
C     -1.6136      6.2783      3.5385
H     -2.8311     12.1764      8.1131
H      2.2473      4.8801     -0.9959
H     -9.0524    -16.4212     14.0377
H      5.1412      4.0730     13.5754
H     -3.1354      2.9757      4.8742
C      1.9823      1.3367      9.2953
H     -1.7338     11.6055      6.1357
C      0.7890      5.3596      3.5481
C     -7.4744     -8.7161     15.8527
H      1.2210      4.5915      8.0914
H      4.7440     -4.6923      7.7033
C      7.4940      3.9050      9.6104
H     -2.5643     11.5652      1.1347
H      6.7121     -1.6655      6.3633
C      2.0367      6.5218      8.7448
C     -1.3773      5.4262      5.7514
C    -10.7137    -12.9542     15.7991
C      1.6856      4.3721      5.5927
C      1.8372      6.5386      7.2881
C      2.3256      4.3685      0.0244
H     -9.1312    -11.7532     14.9375
H     -3.5880     -4.3434      8.9766
H     -9.5736    -12.1355     12.9676
H      7.2214     -6.3903      7.6717
H      7.3731      2.3069      8.4794
H     -2.8968     10.4378      4.0478
C     -5.2425     12.8006      0.3198
H      5.5321      1.6791      3.5819
C     -0.3873      8.9460      4.8783
C     -3.2938     -4.5333      9.9433
C      8.1268     -1.7898      7.9746
H     -4.3396     10.2853      4.9459
C     -0.4421     -5.4535      7.3788
C      1.1739      3.0107      5.1184
O     -3.9026     -6.9641     17.3673
C     -1.5177      8.1802      5.4086
C      6.3632      0.9089      7.5809
C      5.5745      1.6498      6.6908
C      3.2202      1.2752      6.3152
H      4.9947      2.3329      9.4345
H      7.9556     -0.9872     10.1277
H     -0.8598     10.0342      6.1827
H     -8.9176    -11.5832     17.0582
H     -0.4092     -5.6795      8.4588
C      1.7850      4.8293      7.0293
H    -12.0380     -8.8933     14.9519
C      3.9407      5.5243      5.1594
C      4.0245      2.6424      9.3670
H     -6.2869     12.2921      0.0081
H      0.2613      6.3988     -0.4534
C     -4.2799     -4.8665     10.8969
H      2.8364      3.5952     11.0858
H      7.7587      5.2080      8.5048
H     -1.0877      6.2349     -0.6257
C      4.2122      3.1317      4.8004
C      4.5553      9.7190      5.5385
C      6.1917     -1.0075      9.1049
C      7.3241     -3.5993      6.7055
C      5.4356      4.4858      8.2221
C      5.7451      0.2254      8.5285
H     -1.2215      3.1444      8.4475
H     -6.8044    -15.3332     13.2702
H     -3.7411     -7.3212     12.9084
C      1.3235      9.9816      0.7173
H      2.5957      4.2775      9.4430
H     -2.2665      9.6079      2.7673
