278

C     -6.2031     -3.9968     13.5005
N     -1.9402     23.6618      1.2487
C      4.0068     14.5406      7.0104
C    -10.4430      2.3576     15.3964
H      0.9143     14.8100      9.6925
C     -5.1728      4.9277     15.5242
H     -2.7229      5.8715     14.7963
C     -5.1713      3.7898     16.2770
C      3.3589     17.2701      5.5139
C     -6.7081     -3.1954     11.4203
C      3.3483      7.3596      6.6127
C      6.4059     14.7787      4.3868
C      6.6038      9.5768      8.7601
C      0.6851     21.6120      0.8259
C     -4.0511     25.2963     -0.4739
C     -4.7083     26.9051      1.0946
N      0.3685     15.5286      6.0221
H     -6.1588     -4.0970     11.2085
C      1.1956      6.1142      0.4737
O    -13.9085      3.0973     13.8607
C      3.4279     17.2475      7.2150
H      0.3567     20.2905     -2.3460
H     -5.5528     27.2735      1.9327
C      2.8349     19.3748      4.5807
C     -9.3708     -2.2128     16.3515
H     -1.6210      3.1183      6.3253
H      5.2316     19.0940     15.1487
C     -9.1211     -3.6307     16.2096
H      5.3966     20.3196      8.8277
H     -6.4883     -2.0876     10.9620
H      5.4650     16.7146      5.9713
H      3.5773     18.7053      8.1716
H     -0.6601      5.2557      6.6485
C      3.3925     15.7327      7.9177
H     -3.8490     24.6825     -2.2480
H      7.0475     14.3905      5.0085
C      7.7427     12.1723      9.0612
C     -3.9630     24.1346     -1.3980
C      6.5529     19.0067     10.3111
H      1.9906     12.4213      9.0760
H      2.2550     19.0183      9.6144
C     -6.4148      3.0603     16.4793
H      5.4305     16.4081      8.2310
H      2.5812     20.2966      8.9503
C     -8.8787     -1.6504     17.6391
C     -2.9568     21.6827      4.7304
O      2.0166      8.7455      4.8169
C     -1.5692      8.2210      6.9453
C     -4.1451      8.0757     12.3098
C     -5.4245     -5.2355     13.1792
C      6.5862     19.6857     12.4214
H     -7.4400      4.5249     15.1433
H      6.5126     16.7921     12.3849
H    -10.8616     -1.0276     18.9811
H      7.7861      7.1364      9.4255
C      8.2769     15.6968      8.7114
H    -12.2599      1.2106     14.8818
C      7.3345     19.0749     11.3341
C     -4.7924      5.9700     16.4099
C     -1.1984      6.7647      5.1655
H      3.9148      8.1908      8.4304
H     -8.9887     -1.5787     15.3816
H      3.9184     19.2071      2.5176
H      3.5434     16.7843     11.1989
C     -3.1763     24.3870      7.3364
C      6.9148     17.8576      9.2905
C      2.9875      7.7282      5.0980
C     -3.4342     27.4526      0.9297
C      5.5707     17.3926     12.4660
C     -8.1746     -3.2532     14.8776
H     -3.8041     21.0571      4.9660
H     -3.7296     20.9411      2.9202
H      3.6160     13.8260     10.7980
H      7.1289      9.8799      9.6885
H      5.0767     13.7375      5.7950
C     -0.1926     16.2442      8.1458
H     -4.4568     -3.7764     14.6421
C      0.3619     21.4177     -0.7160
C      1.9827     15.1691      8.1729
H     -2.2568     19.4519     -2.1655
H     -2.5663     22.5732     -1.6278
C     -0.3684      6.1376      1.4123
H      5.7530     20.0949     12.1037
H     -1.4161      2.1579      5.0261
H      8.2149      7.6973      7.2991
C     -3.0321      7.2746     13.0488
O      2.5891     23.0924      0.7758
C      7.3964      8.6595      7.9373
C      3.7830      8.4596      7.4828
C      3.2903     14.1393      9.6478
C     -9.6148      0.5451     17.8572
H     -4.4362     -2.0519     14.5281
H      7.2528     13.2484      7.0337
H     -2.3381      5.0955      6.1754
H      4.3875     18.8166      9.7196
C     -8.7145      3.3481     16.4768
C     -2.0927     21.3086      0.6621
C     -1.6320     19.5830     -1.1802
H      9.0861     14.7920      9.1472
C      5.4229     15.7209      5.5399
H      1.9432     10.7211      8.5835
C      2.2413     11.7152      8.3758
C      4.5632     11.0818      7.3784
C     -2.0410      5.0030      3.6144
C      3.7054      9.9414      6.8593
C    -10.0315      3.6658     15.8665
C      5.4051     19.6161      9.6912
H      1.7313     12.1514      7.5146
H      2.8049     20.5465      0.3561
H      0.9501     24.8574      0.7244
H     -3.8390      6.4610     18.1236
H      3.0965      3.0107      0.4261
O      5.7578     19.8351      6.4897
C      0.7533      8.1568      4.5617
H      4.7916     11.9326      6.5313
C     -2.9175     21.4923      3.2710
C     -2.1383     20.4338      2.7873
H      8.5900     10.3231      8.1878
H     -4.2284      3.1791     16.4615
C     -2.3658      8.7282      7.8521
H     -2.8001     27.8731      1.8253
H      1.6146     15.8784      4.4267
H     -1.6770     24.3154     -1.3602
H      5.6288     18.8045     11.5471
C     -9.9129      1.1493     15.3435
C     -0.2403     21.4864      2.1012
O      4.8591     18.0185     11.3028
O      7.7437     16.3511     10.9293
C    -12.8472      3.1551     14.5318
C      0.0807      3.8646      4.0700
C      7.0736     10.8940      6.9193
H     -4.1786     22.9013     -1.7505
H      2.6631     10.3340      6.9251
H     -0.7596      9.0450      3.7755
O     -0.0981     10.2768      5.1508
C      5.9660     10.8473      7.9986
C      0.7050      7.1366      6.6022
C      1.8774     20.5054      0.9142
C      0.5357      7.6558      3.0131
H      7.8168     13.2294      8.9021
C    -10.7347      0.0880     17.2407
C      0.6853     15.5109      7.4814
C     -2.6948     23.5664      6.2329
C     -1.8584      3.1934      5.3549
C     -8.3669     -0.3024     17.9669
C      3.0102     16.6411     10.1123
C    -11.8759      2.1383     14.8687
C     -1.1236     20.4541      1.5899
C      3.8825     12.0089      8.3826
N    -11.7637     -0.7939     18.2769
C    -10.1437      0.7238     13.9616
O      5.1258     19.1573     14.1702
C     -3.5844      6.1265     13.9600
H      5.3172     23.0769      5.5418
C     -2.3030      4.2107      2.5046
C     -2.1360      8.1921      9.2538
H      8.9235     16.5045      8.3046
H      2.3935     13.1850      6.7447
H      7.8209      8.9289      5.6750
C     -2.2212     22.8756      0.2217
H      4.9437     20.3739     10.3368
H      0.8919     20.3342      8.8143
H     -0.3788     22.6825      1.9638
H      1.6102     21.3631     -2.3238
H    -11.1254      0.2994     13.4811
H      0.2421     16.3962      9.0890
C      2.0642     20.3855      2.4691
H    -10.1785      1.4241     13.0135
C      1.4416     21.8279     -1.3910
C     -6.7029     -2.8769     12.7628
H      8.2552     18.7199     11.2190
C     -2.2301     23.4157     -1.0831
H    -12.4937     -1.3072     17.6348
C      4.3293     21.5302      4.4437
C     -5.4019      7.2385     15.8802
C     -4.7416     -3.1027     13.9551
C     -7.0578     -4.1419     14.8335
C      4.5070     19.2351      6.4741
C      2.1963      4.8832      2.6992
C      6.0424     18.5473     13.4023
C      5.2680     20.4180      4.0861
C     -5.0130      6.7308     14.2598
H      2.2598     22.4105     -0.9162
C      4.3586     18.2907      7.7536
O      0.5243     24.0054      0.8727
C      2.0445      5.0311      0.9817
C      6.2119     19.9197      5.0237
H      0.1393     14.7206      5.4353
H     -2.9760     27.7539     -0.1118
H     -3.3258      3.6423      2.4840
C      7.1982     18.3073     14.2071
H     -0.2413      3.0167      3.3760
O      7.3798     20.3265      5.2490
H     -5.3517      8.3381     10.5152
H     -2.6813     21.6201      1.3900
H      1.5248      3.0988     -0.3002
C     -0.5277     20.6163     -1.6207
H      6.3435     17.4669      7.1980
C      2.8550     19.2674      3.1022
C     -1.4026      4.4148      4.8170
C      0.3764      6.8567      5.3221
H      5.7927      8.8663      9.1346
H      2.2270     14.7231      5.9492
C      1.3559     18.7457      4.9176
H    -11.7923      0.0366     15.2939
H     -2.0542      7.1818      9.1712
C      7.7952      7.2404      8.1792
C      4.2352     13.3844      8.3301
C      6.1394     20.7971      2.7876
C     -3.4800     23.1891      5.0858
C      0.1238      6.1294      2.6883
C     -1.3699      6.4839      3.7048
H     -2.4461     24.4502      8.1742
H      3.4097      4.1507     -0.7203
H     -8.7043     -3.4012     14.1385
H      4.7062     16.9538     13.0032
H     -2.9079      3.2305      5.0269
C      1.8734     14.5472      9.4175
H     -1.5738     24.1425      6.0986
C      0.9684      5.1283      3.4796
C     -7.6045      3.5929     15.7926
H      0.8808     17.5669      7.4528
H      4.9211      8.3760      7.1208
C      7.5700     16.4840      9.7188
H     -1.6219     24.4972      1.5592
H      7.1592     10.7431      5.8901
C      1.8398     19.6365      8.7367
C     -1.3938      5.3997      5.7579
C    -11.0305     -0.1081     15.9213
C      1.8055     17.5718      5.6547
C      2.0672     19.4579      7.2718
C      2.5685      3.9648     -0.0479
H     -1.1596      5.5354      0.9772
H     -8.8532      0.9014     15.4251
H     -4.2052      8.8946      9.2321
H     -9.2400      0.4840     13.4995
H      7.0427      6.4534      8.1505
H      7.2299     15.1351      8.2832
H     -3.3714     23.8731      4.1390
C     -5.1359     25.8168      0.0091
H      5.8158     14.0852      3.9261
C     -0.3456      9.1329      4.6997
C     -3.5580      8.6488      9.9523
H     -4.3576     -3.4829     13.2058
C      8.1949     11.2672      7.8385
H     -4.5421     23.0499      5.6616
C     -0.2457      7.5808      7.3232
C      0.9803     16.3997      5.0859
O     -3.8693      5.6432     17.4186
C     -1.7167     21.1614      5.4853
C      6.2814     13.9508      7.3147
C      5.3943     14.6976      6.5110
C      2.8359     13.9550      6.2311
H      4.9073     15.9088      9.9153
H      8.4677     11.7061      9.7424
H      0.2505     10.3978      5.9731
H      0.1971      7.4233      8.2702
C      1.9096     17.9512      7.0952
H    -12.7765      4.3571     14.6045
C      3.8459     18.5189      5.2359
C      3.9222     15.5802      9.4518
H     -6.0655     25.6856     -0.4146
H      1.1939      6.4507     -0.6061
C     -4.3237      8.2745     10.9431
H      1.9877     16.3581     10.3912
H      7.7277     18.2059      8.6433
H     -1.0342     18.9951     -0.5613
C      4.1714     16.0269      5.0083
C      4.4480     22.4048      5.6547
C      6.2743     12.0267      8.9698
C      7.3816      9.3603      6.7595
C      5.7520     17.4630      8.2237
C      5.8139     13.2950      8.4184
H     -6.9044     -1.8398     13.1380
H     -3.5112      4.9825     13.7514
C      1.4158     23.0573      1.1233
H      3.2098     17.6934      9.5617
H     -2.3813     22.3708      2.8899
