282

C     19.9899      8.7580     13.4836
N     -2.2177     10.3535      1.2149
C      3.6573      1.5238      6.8288
C      2.1903      2.4933      2.2219
H      1.1868      1.8185     10.1377
C      7.4539      5.4038      2.5255
H     -3.1602      6.9969      2.3874
C      7.4058      3.8891      3.0703
C      3.3401      4.1217      5.4095
C     19.5529     10.1506     11.0091
C     16.2494      7.3936     19.4510
C      6.2562      2.1012      4.2340
C     -6.9374      8.5366      8.9882
C     13.6247      8.7761     13.6573
C     -3.5446     12.3232     -0.8327
C     -4.0965     13.5343      1.0119
N      0.4579      2.9471      6.1776
C      0.4270      6.4331      0.7309
O     -1.4706      2.3558      1.3876
C      3.1511      4.2027      6.9562
H     13.3983      6.9053     11.2455
H     -4.4907     12.9111      1.8288
C     15.9525      6.3052     17.3386
C     16.8518     10.3314     16.1996
H     -1.6580      2.9592      6.6389
C     16.9314      9.0839     15.6666
H      4.5565      7.5262     10.2926
H     20.2149     11.0071     11.3664
H      1.9448      3.9553      9.8021
H      0.0203      5.3950      6.0364
C      3.0590      2.9572      7.7050
H      7.0437      2.1482      4.7027
O     14.5763     10.2793     15.5960
C     -5.2419     12.1666      9.0482
H     19.6101     10.3689     13.3955
C     -3.1889     11.1563     -1.7222
C      6.0859      5.9388      9.7875
H      2.5409     -0.4200      6.4664
H      4.2764      5.3609      8.8218
C      6.3224      3.1355      3.0684
H      5.3314      3.3682      8.0713
H     18.5015     10.2530     10.5611
H     -8.4520     11.4867      9.2024
H      2.5367      7.6684      9.2290
C     17.6247     10.7002     17.2143
C     -2.8218      8.8779      5.1657
O      2.1563      8.7242      4.9977
C     -1.4006      8.3918      7.1410
C      8.6232      7.9485     11.9597
C     20.3394      7.5429     12.8577
C      6.4171      6.6917     -0.7723
H      5.1106      3.4171      1.4677
H     17.6316      8.9905     13.6404
H      1.4527     -2.1177      4.9341
H     -5.3062      5.9552      8.1198
C      8.1525      2.7522      8.6558
H      0.6265      1.2503      1.9611
C      7.0789      6.1205     10.9954
C      8.2066      6.2458      3.2193
H      8.1737      7.8247      1.9355
C     -1.1305      6.9818      5.1781
H     15.5698      8.8966     20.5345
H     17.3495     10.8703     15.4978
H      2.3305      5.4064      0.0796
C     -3.1719     11.2592      8.0164
C      6.4413      4.8263      9.1372
C     16.0093      7.6104     17.9410
C     -3.6356     14.7188      0.9992
C      5.2614      4.4568     -0.6655
C     17.6466      8.6413     14.6475
H     -3.3767      7.9267      4.9611
H      8.6360      8.3863      3.7449
H      3.2208      0.2271      9.9526
H     -7.0803     10.0794      8.7711
H     18.7421     12.5336     17.8329
C     -0.8759      3.8788      8.0952
H     20.9309     10.0356     14.8451
C     13.1770      8.7403     12.1768
C      1.7096      2.7867      8.2782
H     11.0573      6.2379     10.5468
H     -1.6644      9.5009     -1.3399
C     -0.6447      6.5329      1.5346
H      5.5848      7.2861     -1.0441
H     -2.6946      2.7182      4.8555
H     18.1586      9.1929     12.2674
H     -4.3393      6.5853      4.9785
C     10.2257      7.1966     12.6198
O     15.7753     10.2016     13.8568
C     -5.6671      8.3685      8.2020
C     16.5072      8.7455     20.2101
C      3.3512      1.3507      9.4337
C      2.3300      0.8074      4.9130
H     -4.5267     11.0686      0.9814
H     -1.2609     11.0660      1.2003
H     -6.6455     12.6995      6.4526
H     -1.6320      5.2769      6.7920
H      2.8121      5.8381      8.9892
C      4.0393      3.4251      3.2714
C     -2.1962      8.3185      0.4557
C     11.3099      6.4914     11.7733
H      8.0213      1.8526      9.2232
C      5.1712      2.2988      5.0046
H    -11.1987     12.1545      9.4615
H     17.9524     12.8708     16.3779
C    -10.3567     11.5304      8.7816
C     -8.3179     11.3346      7.1457
C     -2.3992      5.3329      3.7358
C     16.7923      9.8849     19.2041
C      2.6343      3.7496      2.7472
C      5.4596      7.2444      9.5065
H    -10.6523     10.8865      7.6517
H     15.0585      7.0043     13.1813
H     -3.5588     13.4917     -1.2197
H     -0.0054      3.7531     -0.0064
O      5.9536      6.8353      6.4531
C      0.8798      8.3573      4.5937
H     -8.3040     12.2247      6.3348
C     -2.4279      8.9975      3.6331
C     -2.4443      7.7939      2.7413
H     -4.3797     10.2531      9.3039
H      7.9171      3.3682      3.8757
C     -2.5838      8.2878      7.8379
H     -4.0028     15.4087      1.7155
H      3.8684      3.5484      0.4181
C      3.0410      1.2762      1.8498
C     -0.1277      8.5900      1.9168
O      3.9524      4.4056     -0.1280
O      7.3109      3.3231     10.8114
C     -0.3675      3.1040      1.7543
C     -0.0479      3.9053      3.9076
C     -5.6802     10.8367      7.4268
H     -3.9489     10.3353     -2.2102
H     15.9385     10.3004     18.7629
H     12.9570      7.8017     10.2207
O      0.5468     10.0443      6.2778
C     -6.8461     10.9847      8.0634
C      0.7223      7.2560      6.7534
C     14.5948      7.4559     14.0257
C      0.7334      7.7010      3.1969
H     -4.7850     13.1413      8.3483
C      2.1644     -0.3163      3.7388
C      0.3548      3.3458      7.5885
C     -2.6678     10.6857      6.8655
C     -2.2907      3.3943      5.7830
C     17.9431     12.3107     17.2698
C      3.0452      3.8711     10.2401
C      0.7393      2.3416      1.9963
C     -1.3257      7.8553      1.6101
C     -9.1308     11.3656      8.4082
N      1.2035     -1.2301      4.4040
C      3.5512      1.3827      0.3538
C      9.3355      6.1846      0.5319
H     18.7079      9.2584     18.7993
C     -2.7958      4.3195      2.7563
C     -2.9651      8.4078      9.3074
H      9.3871      2.7162      8.4257
H      1.0843      0.7200      6.6914
H     -5.1242      8.3191      6.5601
C     -2.6415      9.7425      0.0824
H      4.6695      6.8287      8.7753
H      1.4256      6.5212      9.1377
H     -0.4821      9.7179      2.2203
H     14.3595      8.9921     10.5785
H      2.8470      1.8374     -0.5874
H     -1.9157      4.0758      1.8293
H     -1.3573      4.6049      8.8072
C     14.9988      7.5516     15.5520
H      3.8667      2.4807      0.6753
C     14.1093      9.5793     11.6663
C     19.1658      9.6977     12.6402
H      7.5412      5.2144     11.2304
C     -1.9663     10.5686     -1.1175
H      0.8458     -0.8541      5.2906
C      4.4605      8.2785      4.6236
C      8.0027      7.6453      3.0511
C     21.1373      9.2749     14.1998
C     19.0122      8.3292     14.6702
C      4.5889      6.3552      6.4061
C      1.9400      5.1136      2.4440
C      5.9888      5.4093      0.0737
C      5.7997      7.8100      4.2906
C      7.9684      6.4980      0.5992
H     15.1804      9.5125     12.0294
C      4.3933      5.1915      7.5005
C      1.5698      5.3188      0.9469
H     -3.6300      8.9043      7.5262
C      6.5968      7.1916      5.2360
H      1.4898      1.2799      4.7426
H     -3.3338     15.5337      0.1354
H     -3.7592      4.4804      2.2666
C      7.0224      5.4940      1.0992
H     -1.1239      3.5154      3.7347
O      7.9423      7.3131      5.6320
H      8.5475      8.9161     11.6398
H     21.9742      8.7294     14.5183
H      0.3527      3.0446      3.5931
H      1.1905      4.6339     -0.8792
H      4.8405      5.3028      4.2644
C     12.5514      7.4697     11.2445
H      6.4554      4.3177      6.7632
C     15.6677      6.2390     15.8108
C     -1.7901      4.7001      4.9599
C      0.4771      7.0941      5.3572
H     20.3922      9.4897     10.3652
H      3.1386      1.5146      4.9441
C      1.0986      5.7946      4.5317
H      2.9190     -0.9970      1.7765
H     15.5594     10.5031     15.6267
H     -1.9489      7.9515      9.5544
C     -4.9308      7.1199      8.3075
C      4.0955      0.8021      8.1156
C      6.5172      7.9217      2.9709
C     -3.1947     10.2052      5.5392
C     -0.1607      6.3773      2.9215
C     -1.4837      6.4616      3.7275
H     -2.8612     12.1514      8.4550
H      1.7111      3.4641      0.1730
H      5.8731      3.5559     -0.8643
H     -2.9474      3.9167      6.4251
C      1.8850      1.9853      9.4190
H     -1.9110     11.2918      6.6851
C      0.6676      5.2368      3.3057
C      5.1838      3.5864      2.4890
H      1.4130      4.8665      7.8741
H     17.5532      8.6826     20.7083
C      7.0948      3.5498      9.5878
H     -2.8942     10.9962      1.5203
H     -5.5241     11.0830      6.3520
C      2.3234      6.7191      8.7340
C     -1.4195      5.7081      5.8312
C      2.3684     -0.1962      2.3094
C      1.2092      4.9933      5.8710
C      2.1247      6.6498      7.2442
C      1.0203      4.2569     -0.0334
H     -1.3882      5.8668      1.3824
H      3.9143      1.5273      2.5617
H     -2.9673      9.2500      9.3869
H      4.1647      0.3553      0.5144
H     -4.2251      6.9479      7.4683
H      7.7251      2.8583      7.6150
H     -2.2868     10.8249      4.7566
C     -4.5215     12.1716      0.1473
H      6.1330      1.0345      3.8623
C     -0.0968      9.4141      5.1875
C     -4.1463      7.5574      9.4777
H      5.1699      4.8370     -1.6338
H     -3.0736      9.4689      3.0678
C     -4.5268     11.0338      8.5227
H     -2.7750      3.5141      3.2684
H     -4.3728     10.6558      5.4169
C     -0.0439      7.9491      7.4537
C      0.6373      3.8427      5.3052
O     -3.7997      5.8243      4.1933
C     -1.5011      8.4222      5.7819
C     -6.7080     13.7319      6.8046
C      5.0165      1.5916      6.0452
C      2.3119      0.6703      6.3911
H     -5.8527     14.3058      6.9945
H      4.6755      3.5593      9.1869
H     -4.9197     12.3410      9.9779
H      0.1033     10.5683      7.0586
H     16.8310     12.6679     17.4167
H      0.2572      7.8742      8.4964
C      1.9781      5.0345      7.0665
H     -0.1072      4.0992      2.0280
C      4.0656      5.4229      4.9983
C      3.7453      3.0683      9.1611
H     -0.1370      6.3396     -0.3868
C      8.2242      7.2486     10.6115
C      4.0301      3.0248      4.5266
C     17.7565      9.6392     18.2850
C     -6.7569     12.3556      8.9094
C     -5.3681      9.3113      7.2873
C      5.8715      4.5117      7.8464
C     -7.2444     13.6222      8.1584
H     -1.5990      4.0914      7.3709
H     -3.6388      9.9761     -0.3130
H     -7.3506     12.2994     10.0469
H      9.7643      5.1201      0.6322
C     14.4961      9.9963     14.2127
H      3.3525      4.9599     10.5019
H     -1.5843      9.8046      3.4239
