290

C      7.0782      9.1452     13.9509
N     10.9908     -2.0521      1.0793
C      3.8057      1.4561      7.1337
C      2.1419      2.3385      2.7653
H      1.1925      0.4199      9.7394
C      8.0047      5.0794      2.6571
H      9.6551     -5.7033      2.7539
C      7.8038      3.7906      3.3915
C      3.2581      4.1279      5.5726
C      6.6368      9.8680     11.6491
C      3.4064      7.3250     19.5377
C      6.0910      2.0828      4.1998
C      6.2589     -3.3728      8.7936
C      0.6228      8.6107     13.6366
C      9.4393     -1.0257     -0.5839
C      7.9474      0.6110      0.3552
N      1.0468      2.2487      6.0497
H      6.1765      9.1196     11.1490
C     13.6701     -6.7898      0.5070
O     -0.2856      2.0815      0.0540
C      3.1273      4.2470      7.2058
H      6.8669      1.1884      0.2904
C      2.9426      6.4243     17.3327
C      3.6893     10.6421     16.3412
H     -1.5971      2.5021      6.0193
H      5.5741      7.4781     14.3605
C      4.1487      9.2775     16.3043
H      4.4255      6.9559      9.3240
H      6.3524     10.6338     10.8800
H      4.0885      5.6972      8.4354
H     -0.8343      4.6604      6.3650
H      5.9177      1.0559      9.2716
C      3.0725      2.6063      7.9776
H      9.7388     -1.2754     -2.9520
H      7.0790      1.8624      4.6947
C      7.5941     -0.5845      8.8563
C      9.5761     -1.8816     -1.7402
C      6.2309      5.9787     10.0297
H      1.5617     -0.2174      8.3019
H      1.3768      5.7451      9.5656
C      6.4387      3.5653      3.4991
H      4.8598      4.3254      9.2836
H      4.1077     -1.1609      9.2757
H      2.8717      6.3571      8.9687
C      4.3152     11.2592     17.6218
C     10.5106     -3.9767      5.1560
O     15.0407     -4.2454      4.7931
C     -1.1832      8.4272      7.2059
C     -4.2722      8.0760     11.9958
C      7.3610      7.6627     12.9795
C      6.3324      6.7174     12.3170
H      5.3352      5.2332      3.0039
H      4.5552     10.1487     14.5840
H      1.5835     -1.0914      5.6647
C      7.7927      2.6654      9.1034
H      0.3034      1.0691      1.6820
C      6.8546      6.1806     11.1559
C      8.1316      6.1285      3.6063
H      7.6825      7.0993      1.8982
C     -0.9545      6.6349      5.2491
H      3.7051      8.4253     21.4475
H      3.2952     11.4253     15.4889
H      3.9155      6.1763     15.0535
H      2.9539      4.6466      9.9338
H     15.7875     -7.4522      0.4939
C      9.6119     -1.4688      7.6887
C      6.6021      5.0453      8.9998
C      3.1125      7.6004     18.0588
C      9.0298      1.4264      0.7687
C      5.4483      4.4978     13.2910
C      4.6633      9.1343     14.9069
H      9.7839     -4.8162      5.1060
H      8.4965      8.1805      3.6936
H      3.1162      1.0623     10.5175
H      6.9315     -3.8508      9.4739
H      5.6255     13.0729     17.9190
C     -0.1697      3.3859      7.6849
H      8.3778     10.0008     15.1493
C      0.2694      8.0728     12.0374
C      1.7268      2.2523      8.2291
H     -2.7076      5.8492     10.9613
H     11.2190     -3.6286     -1.5439
C     12.3855     -6.7020      1.3323
H      5.5844      7.3994     12.0860
H     -2.2046      2.7584      4.1295
H      7.4551     -6.3807      7.3958
C     -3.0425      7.5928     12.4925
O      2.6616     10.1355     13.8084
C      6.7461     -4.2780      7.5869
C      3.8907      8.3591     20.4198
C      3.6027      1.2885      9.5167
C      3.2301      0.2860      4.9214
H      8.9346     10.2188     13.8784
H      6.5768      0.4651      6.6338
H     -2.3672      5.7052      6.2685
H      4.1566      6.4055     10.9119
C      3.8891      3.6801      3.3815
C     11.0364     -4.5376      0.2907
C     -2.0496      6.5174     11.6599
H      7.9504      1.7760      9.6985
C      5.0675      2.1024      5.1906
H      1.6647     -1.5132      9.1124
H      5.4304     12.4964     16.0887
C      2.2320     -1.1076      8.1997
C      4.5046     -1.6708      7.3689
C     -2.2320      5.2941      3.5975
C      3.7207      9.8880     19.7497
C      2.7847      3.6417      2.5850
C      4.9309      6.7725     10.1934
H      2.0880     -1.5127      7.1088
H      2.4076      7.5299     12.9154
H      0.8382     12.1371     13.6188
H      9.7399      6.8049      4.3106
H     10.2476     -0.3494     -0.5114
H     13.3557     -9.0271     -0.0405
O      5.7079      6.6937      6.5222
C     13.8109     -4.6722      4.5771
H      4.7163     -1.0802      6.6393
C     10.7486     -4.0095      3.5944
C     10.8620     -5.3838      2.9911
H      8.4132     -2.5292      8.8763
H      8.7543      3.6337      3.7701
C     -2.2917      7.7821      7.6798
H      9.1303      2.1346      1.6342
H      2.0911      2.4076      3.8305
H     11.7711     -1.9855     -1.2192
H      4.6501      6.1104     12.6745
C      2.7811      1.1200      2.2482
C     12.8263     -4.4765      2.0268
O      4.4522      5.2508     12.3999
O      7.3267      3.9713     10.9362
C     -0.4646      2.8723      1.3561
C      0.1934      3.8674      4.0902
C      6.8745     -1.7487      6.9804
H      8.9120     -2.7001     -1.6176
H      2.7975     10.2013     19.2565
H     12.7303     -3.4314      4.0181
H     -0.3061      7.6239     10.3814
O     13.3959     -3.0457      6.3140
C      5.8932     -1.8784      8.0320
C      0.7964      7.0165      6.7440
C      1.6450      7.4783     13.6789
H      2.7134      8.3781     15.5458
C     13.6497     -5.2690      2.9514
H      7.8741      0.4737      8.2319
C      2.2804     -0.2574      3.8900
C      0.6267      2.4322      7.3433
C     10.4466     -2.2737      6.9565
C     -1.9943      3.0367      5.1943
C      5.5120     12.2278     17.3341
C      3.2862      3.6317     10.3092
C      0.5420      2.1665      2.2045
C     11.6782     -5.2020      1.4529
C      3.6933     -0.9102      8.4305
N      1.3611     -1.0404      4.6335
C      2.8435      1.3984      0.5780
O      5.0451      6.6667     14.1100
C      9.4248      6.5489     13.3295
H      5.8790      9.9386     18.8499
C     -2.8354      4.9655      2.3718
C     -2.6314      7.6414      9.1438
H      8.4701      3.1549      8.3544
H      1.8809      0.0155      6.7104
H      6.8327     -4.0421      5.4660
C     10.8889     -3.0898      0.1882
H      5.3912      7.7726     10.4244
H      1.6250      7.5553      9.5477
H     12.4418     -3.4926      2.2612
H      1.5048      8.9024     10.2828
H      3.7291      0.6888      0.8422
H     -0.9616      2.5649     -0.4451
H     -0.0915      3.5032      8.8059
C      2.2173      7.4588     15.2800
H      2.1069      0.4587      0.2756
C      1.1880      8.9006     11.4040
C      6.8824     10.2622     12.9672
H      7.7806      5.6242     11.3566
C     10.9228     -2.6415     -1.2489
H      0.5801     -1.4551      4.2929
C      4.4933      8.6829      4.7502
C      7.7894      7.4080      2.9352
C      8.6132      9.3356     14.4205
C      6.0355      8.7000     14.8149
C      4.4273      6.0509      6.5690
C      1.9955      4.9561      2.3128
C      6.2347      5.6539     13.4805
C      5.5018      7.5699      4.2225
C      8.1947      6.5193     13.5604
H      1.9437      9.6257     11.7522
C      4.4077      5.0758      7.5623
O      0.6000     11.0352     13.6171
C     14.7538     -7.6663      0.9086
H     -3.0198      7.7915      6.7924
C      6.3236      7.0986      5.3233
H      0.8708      1.1837      5.5732
H     10.0958      1.0548      0.4793
H     -3.8582      5.2320      1.9336
C      7.3862      5.4677     14.2429
H      0.1681      3.0510      3.4007
O      7.6538      7.1205      5.5506
H     -5.5313      8.5544     10.3784
H      9.3807      8.5476     14.5594
H     15.1647     -9.0355     -0.6419
H      4.7801      5.8869      4.4261
C     -0.6225      7.3339     11.2455
C      2.9832      6.1541     15.6248
C     -1.2989      4.3678      4.7970
C      0.4560      6.6689      5.4119
H      5.3800     -4.0021      9.1815
H      3.0548      1.8587      4.8874
C      1.4139      5.7818      4.6933
H      1.2734     -0.3344      1.9234
H     -2.5753      6.5747      9.3203
C      7.2316     -5.7637      8.0653
C      4.1745      0.5276      8.4249
C      6.4108      7.8386      3.0092
C      9.6655     -3.0095      5.8590
C     12.8466     -6.6508      2.9378
C     -1.3569      6.4680      3.7854
H     10.0930     -0.5808      8.3219
H     14.7466     -9.7606      0.6341
H      3.8988      8.7628     14.1901
H      4.8379      4.1485     13.9560
H     -2.8323      3.1502      5.6773
C      1.8773      1.3225      9.3979
H     11.3244     -1.9816      6.7949
C      0.8463      5.1161      3.3167
C      5.1981      4.1802      3.2386
H      0.8544      4.4975      7.4388
H      4.8801      8.0575     20.6208
C      7.1399      3.8423      9.7411
H     10.7317     -1.1821      0.8450
H      6.7300     -1.2508      5.8171
C      1.7694      6.6527      8.8153
C     -1.3704      5.4216      5.8534
C      2.1901     -0.2737      2.4590
C      1.7310      4.6409      5.5212
C      1.9347      6.5920      7.3050
C     14.4938     -8.8550      0.1016
H     11.6440     -7.2186      0.7342
H      3.9294      0.9094      2.3795
H     -4.0637      8.8943      8.6596
H      2.5543      2.3886      0.3574
H      6.0742     -5.6871      8.3008
H      7.1573      2.4550      8.2895
H      9.6529     -2.4790      4.7407
C      8.2355     -0.4693     -0.5328
H      6.1192      1.1521      3.3828
C     12.8157     -3.7562      5.0388
C     -3.6286      8.4468      9.5272
H      5.9981      3.9916     12.5561
C      8.1707     -1.7135      7.9758
H     -2.7778      3.8834      2.4398
H      8.6003     -3.2073      6.2234
C      0.0036      7.7221      7.5332
C      0.9197      3.4277      5.2831
O      9.2881      6.1126      4.6364
C     11.6521     -4.4576      5.7030
C      6.1969      1.3555      7.1023
C      5.0868      1.5912      6.3974
C      2.7159      0.6267      6.2126
H      6.8528      2.1503      7.4932
H      4.7451      2.8325      8.7993
H      8.1440     -0.2344     10.0058
H     14.1443     -3.5311      6.2655
H      4.1756      0.7190      4.6974
H      0.6612      7.6693      8.3909
C      1.8427      4.9844      7.1484
H     -0.3756      3.9334      1.3105
C      3.9446      5.3611      5.0046
C      3.8259      2.7487      9.2391
H      7.5171     -0.8529     -1.4965
H     13.5256     -6.4745     -0.4499
C     -4.6434      7.8929     10.4937
H      4.2846      3.9078     10.9506
H      7.7246      5.3925      8.6413
H     -1.8053      5.5358     12.2025
C      3.8187      2.9080      4.8332
C      4.6248      9.9619     18.6623
C      6.2417     -0.8397      8.8388
C      6.9991     -3.6076      6.4942
C      5.4504      4.4883      8.4647
C      5.7284      0.5528      8.4126
H     -1.0721      3.4983      7.1747
H      7.8246     11.1115     12.9989
H      6.0390     -0.9725      9.8583
H     10.4176      6.0095     13.8434
C      1.3201      9.8974     13.6896
H      2.4914      3.1289     10.6111
H     11.3847     -3.3761      3.1549
