293

C      7.0853      8.8938     13.7364
N     10.6318     -2.2569      1.0394
C      3.9472      1.3176      7.2238
C      1.9410      2.5978      2.8529
H      1.3974      0.5529      9.7896
C      7.9207      5.2251      2.6166
H      9.9443     -5.4403      2.5689
C      7.8325      3.8720      3.1184
C      3.2245      3.9866      5.7692
C      6.3289     10.3232     11.5224
C      3.3293      7.4301     19.5867
C      6.3742      2.2538      4.3089
C      6.0975     -3.3399      8.7185
C      0.6859      8.5627     13.5215
C      9.2807     -0.9632     -0.2792
C      8.1157      0.7289      0.8477
N      0.8003      2.3064      6.0480
H      5.4249     10.0396     10.9909
C     13.6349     -6.7835      0.6561
O     -0.5687      2.3895     -0.0204
C      3.2329      3.9327      7.2578
H      0.2048      6.5725     10.7046
H      7.1417      0.9415      1.2047
C      2.7901      6.4139     17.4026
C      3.7015     10.4816     16.4602
H     -1.1353      2.5378      5.4812
H      4.5601      6.6313      0.3810
C      4.2194      9.2465     16.1204
H      4.3860      6.7099     -4.2253
H      6.8706     11.1365     11.0594
H      4.1992      5.1330     -4.0608
H     -0.6356      5.3461      6.4133
H      5.8378      1.0047      9.6571
C      3.1975      2.7042      7.9850
H     10.3220     -0.6463     -1.8919
H      7.3009      1.7554      4.8733
C      7.4315     -0.9201      8.9876
C      9.9774     -1.7273     -1.3716
C      6.3011      5.9530     -3.0146
H      1.7583      0.1189      8.2507
H      1.1900      6.3352      9.3801
C      6.6044      3.6043      3.6265
H      5.5473      3.5916     -4.8036
H      4.0383     -1.3862      9.4828
H      2.9932      6.0626      9.1672
C      4.6554     10.8808     17.5465
C     10.2044     -4.2067      5.1353
O     15.0922     -4.2041      4.6437
C     -1.2270      8.1645      7.2013
C     -4.0248      7.8761     11.6576
C      7.6071      7.5732     12.8458
C      6.5719      6.8213     -0.6314
H      5.2810      5.2063      3.1696
H      4.8756     10.2017     14.5173
H      2.1156     -2.2142      5.0864
C      7.8377      2.5486     -3.7551
H      0.1261      1.5411      1.8771
C      7.1316      6.0829     -1.9505
C      8.3679      6.2729      3.5702
H      8.3345      7.7507      2.2815
C     -0.8546      6.7999      5.0496
H      3.6445      8.5816     21.4627
H      3.5662     11.0348     15.4633
H      3.9879      6.0674     15.3911
H      2.8575      4.1494      9.9028
H     15.7118     -7.2120      0.6113
C      9.5983     -1.3702      7.5170
C      6.8408      5.0127     -3.9550
C      3.1208      7.8460     18.0142
C      9.1769      1.6537      0.7016
C      5.5949      4.4783      0.2711
C      4.8108      9.1757     14.8750
H      9.8392     -4.9949      5.3301
H      8.1100      8.3600      4.1994
H      3.7820      0.9122     10.7064
H      6.7123     -2.7387      9.2244
H      5.7881     12.6510     18.1519
C     -0.2168      3.2004      7.8448
H      8.2205      9.9223     15.0657
C      0.4249      8.5119     11.9701
C      1.8461      2.3251      8.5826
H     -1.4266      5.8082     10.9966
H     10.7823     -3.7470     -1.8701
C     12.3204     -6.4825      1.5063
H      6.1908      7.8564     -0.9763
H     -2.0636      2.4640      4.0122
H      7.0902     -6.2237      7.1794
C     -2.5576      7.2559     12.3057
O      2.6300     10.4568     13.4750
C      6.5129     -4.0814      7.5952
C      3.7815      8.6315     20.3861
C      3.5300      1.0830      9.6455
C      3.0353      0.1768      5.1260
H      9.2711      9.3008     13.2352
H     11.3306     -2.2974      1.9015
H      7.4422      1.2212      7.4075
H     -2.3618      6.1348      6.3059
H      4.1939      6.3249     -2.2637
C      3.9995      3.4463      3.4280
C     11.0239     -4.7538      0.4047
C     -1.3249      6.6550     11.6017
H      8.8100      2.1098     -3.2564
C      5.2031      2.3190      5.3048
H      1.7862     -1.2945      9.1626
H      4.8810     12.5913     16.4925
C      1.9983     -0.8919      8.3166
C      4.3285     -1.8737      7.4387
C     -2.0776      5.1766      3.5671
C      3.7876      9.8597     19.6027
C      2.6951      3.7612      2.7651
C      4.9006      6.8092     -3.0445
H      1.9974     -1.7279      7.5501
H      2.7294      7.6703     13.2616
H      0.3347     11.4557     14.4879
H      9.7125      5.3156      4.6635
H      9.9663      0.0453     -0.3479
H     14.1177     -9.3656      0.6412
O      5.6387      6.4526      6.3166
C     13.7463     -4.7897      4.4735
H      4.5609     -1.1110      6.7606
C     10.2141     -3.9487      3.7131
C     10.7692     -5.1242      2.9215
H      8.3301     -2.6499      8.5728
H      8.6571      3.7525      3.8073
C     -2.4363      7.7655      7.6693
H      9.3605      2.4970      1.5403
H      1.9118      2.0594      3.8812
H     11.9192     -2.4200     -0.9410
H      5.1753      5.3362     -1.4406
C      2.7012      1.2065      2.3731
C     12.7186     -4.3085      1.9953
O      4.5471      5.3104     -0.6268
O      7.4487      3.9334     -1.8083
C     -0.1763      3.0235      1.1264
C      0.1086      4.0206      4.1279
C      6.8970     -1.9220      6.9084
H      9.4446     -1.8653     -2.1833
H      2.9539     10.3598     19.2231
H     12.4076     -2.7282      4.1677
H     -0.3443      7.6098      9.9545
O     13.4508     -3.1832      6.0765
C      5.7810     -2.1251      7.9198
C      0.6814      7.0596      7.0657
C      1.4973      7.4457     13.7200
H      2.5663      8.7165     14.5636
C     13.6148     -5.2581      2.9825
H      8.1271      0.0007      8.5440
C      2.3769     -0.5019      4.1759
C      0.9476      2.2864      7.4458
C     10.1287     -2.4627      6.8259
C     -1.9322      3.0277      4.9169
C      5.3001     12.0539     17.4352
C      3.5980      3.4532     10.4886
C      0.5297      2.4925      2.3497
C     11.5845     -5.1091      1.5789
C      3.5720     -1.1400      8.4012
N      1.5157     -1.4746      4.8244
C      2.4014      1.0979      0.6329
O      5.0460      6.4125      1.3195
C      9.7318      6.3727      0.2676
H      5.8144      9.9930     18.6883
C     -2.3610      4.4778      2.3953
C     -2.7395      7.5917      8.9690
H      7.8244      2.6310     -4.8002
H      1.8611      0.3830      6.8303
H      7.1778     -3.8718      5.6484
C     10.5609     -3.4577      0.2236
H      5.1919      7.7708     -2.7817
H      2.5609      7.5353      9.3987
H     12.4760     -3.2718      2.1926
H      1.4318      8.8010     10.1844
H      3.4857      1.2934      0.2369
H     -0.4003      3.0764     -0.6224
H     -0.2720      3.8728      8.5775
C      2.0865      7.5991     15.0331
H      1.9805      0.0461      0.4176
C      1.3410      9.0995     11.2181
C      7.1220      9.5472     12.2670
H      8.0482      5.5756     -1.5220
C     10.8174     -2.9321     -1.0414
H      0.7052     -1.1997      5.4565
C      4.5033      8.4562      4.4180
C      7.8107      7.6636      3.4027
C      8.5090      9.3682     14.2771
C      6.2194      8.9956     15.0421
C      4.2122      6.1318      6.4450
C      2.0915      5.1408      2.3581
C      6.2888      5.8720      0.6256
C      5.5631      7.5806      4.1447
C      8.4265      6.5856      0.5739
H      1.8214     10.0509     11.3235
C      4.3619      5.1445     -5.2677
O      0.1265     10.7849     13.4098
C     14.8334     -7.6393      0.9010
H     -3.3693      8.2493      6.9558
C      6.3178      7.1194      5.3299
H      0.5682      1.4441      5.4021
H      9.3450      1.8284     -0.5756
H     -3.1696      5.0361      2.0410
C      7.6318      5.7825      1.3804
H     -0.1848      3.1139      3.5142
O      7.5028      7.3595      5.6993
H     -5.5093      9.0606     10.5176
H      9.2057      8.8258     14.8265
H     14.3606     -8.4786     -1.0719
H      4.2464      4.9396      4.1603
C     -0.2027      7.4576     10.9705
H      6.2569      4.7922     -6.1065
C      2.9574      6.3209     15.8041
C     -1.4668      4.5094      4.7046
C      0.4555      6.9683      5.3999
H      5.2920     -4.1109      9.2766
H      3.1240      2.1481      4.9390
C      1.3498      5.8216      4.8150
H      1.3627     -0.4502      2.1909
H     -2.5318      6.4580      9.6069
C      6.8675     -5.5094      8.0528
C      4.1420      0.4463      8.5193
C      6.4524      7.8550      2.9786
C      9.3708     -3.0946      5.7389
C     12.8602     -6.6361      2.9475
C     -1.4799      6.5857      3.5149
H     10.0039     -0.6290      8.0933
H     15.5819     -9.4515     -0.3796
H      4.3143      8.3760     14.4090
H      5.2584      4.0893      1.1621
H     -2.9513      3.1782      5.4034
C      1.9597      1.3736      9.5692
H     11.1493     -2.3487      6.6200
C      0.7556      5.2030      3.5574
C      5.3671      4.1076      3.1482
H      0.9116      4.9689      8.0752
H      4.8060      8.3741     20.4380
C      7.4455      3.8246     -3.0273
H     10.9053     -1.4430      0.5921
H      6.5124     -1.4493      6.1532
C      2.1786      6.7066      8.8279
C     -1.3180      5.6068      5.7625
C      2.1393     -0.0655      2.8969
C      1.5877      4.7918      5.7945
C      2.0347      6.7323      7.4292
C     14.6787     -8.9482     -0.1073
H     11.4248     -7.4924      1.7392
H      3.9496      1.4906      2.6280
H     -3.6140      9.4546      8.5410
H      1.8620      1.7764      0.0317
H      6.6158     -5.6462      9.0592
H      7.3980      1.4421     -3.4284
H      9.1488     -2.3247      5.1178
C      8.1107     -0.4895     -0.0127
H      5.8527      1.5330      3.4615
C     12.7153     -3.6794      4.9357
C     -3.7487      8.4800      9.3144
H      6.0268      3.7290     -0.2234
H      9.3192     -3.3486      3.6594
C      8.1022     -1.6918      7.7508
H     -2.1072      3.4060      2.3752
H      8.5721     -3.5910      6.3667
C      0.1086      8.1274      7.8137
C      0.8971      3.5691      5.4090
O      8.9913      6.0237      4.7297
C     11.4635     -4.7590      5.6751
C      6.3309      1.2956      7.5576
C      5.2742      1.5880      6.5229
C      2.7971      0.4556      6.3861
H      6.3154      2.0974      8.3258
H      4.8765      2.7280      9.0725
H      7.6735     -1.0438      9.9827
H     13.7753     -4.1347      6.4993
H      3.9346      0.5225      4.5133
H      0.1233      8.2353      8.8189
C      1.8736      5.0249      7.2967
H     -0.4364      4.1918      0.8605
C      3.7887      5.3306      5.0946
C      3.9483      2.4814      9.3409
H      7.1983     -1.3032     -0.0707
H     13.4957     -6.9679     -0.4590
C     -4.5778      8.3067     10.5303
H      4.4343      3.8381     11.0163
H     -1.0991      6.0504     12.5207
C      3.9063      2.8359      4.8318
C      4.6628      9.7739     18.4858
C      6.0345     -0.9803      8.9108
C      6.7843     -3.4174      6.5270
C      5.6868      4.6003     -5.2100
C      5.6122      0.4083      8.8003
H     -0.8439      3.6512      6.7784
H      8.0645     10.2781     12.7010
H      5.8408     -1.5448      9.8775
H     10.2742      6.0237      1.1853
C      1.4758      9.9910     13.6090
H      2.8142      3.1678     11.1325
H     10.8725     -3.0524      3.5086
