284

C     19.8117      8.6389     13.6495
N     -2.1827     10.3459      1.3460
C      3.7528      1.6082      7.1912
C      2.0964      2.6107      1.7972
H    -12.0789     13.8361      9.7563
C      7.5703      5.1814      2.5343
H     -2.9826      7.1923      2.4499
C      7.6373      3.7672      2.9657
C      3.6010      4.3095      5.3946
C     19.6847     10.1739     11.1594
C     16.3287      7.3414     19.3578
C      6.3250      2.0624      4.3426
C     -6.7721      8.3248      9.0079
C     13.7817      8.8083     13.7895
C     -3.5817     12.2039     -0.8724
C     -4.1591     13.5575      1.2077
N      0.4871      2.7163      6.0693
C      0.6429      6.2707      0.8732
O     -1.6000      2.2603      1.5696
C      3.2048      4.1441      6.8318
H     13.2147      6.5856     11.4433
H     -4.9183     13.7812      2.0097
C     15.6083      6.4318     17.2208
C     16.9027     10.5339     16.0158
C     16.8844      9.0669     15.9748
H     20.2278     11.3460     11.4462
H    -10.7498     16.5627     10.8711
H     -0.2888      5.8696      6.3123
H     -7.0201     13.8301      9.1499
C      3.1991      2.7829      7.7796
H     -1.9551     11.2357     -2.8146
H      7.2362      2.2045      4.9634
O     14.5703     10.0318     15.4666
C     -5.3153     12.3791      9.0961
H     19.2911     10.7949     12.8923
C     -2.6454     11.3436     -1.7592
C      6.3658      5.8709      9.6916
H      3.0199     -0.0442      6.0214
H      4.0485      4.6710      8.5523
C      6.3779      3.1030      3.2989
H      5.5847      3.5779      7.6805
H     18.7091     10.4748     10.8359
H     -8.8362     11.6322      9.2005
H      2.4902      7.8174      9.4267
C     17.1289     10.8817     17.3714
C     -2.5948      9.0785      5.1396
O      2.3095      8.7519      4.7338
C     -1.0676      8.4117      7.1680
C      8.6114      7.9535     11.9042
C     20.3740      7.4571     12.8545
C      6.3065      6.7244     -0.8253
H      5.2148      3.5215      1.3318
H     16.7073      8.9270     13.8421
H      2.2343     -1.8715      4.5451
C      7.6180      2.4362      8.8132
H      1.1037      0.9447      2.1954
C      7.2366      6.0670     11.0406
C      8.1630      6.2232      3.3677
H      9.0205      8.3500      2.7980
C     -0.9471      7.0391      5.1294
H     15.8954      8.7610     20.7757
H     16.3160     11.3346     15.2380
H      2.1575      5.3799      0.3872
C     -3.1633     11.1980      7.8358
C      6.0120      4.6508      9.0359
C     16.1740      7.7081     17.7865
C     -3.6022     14.7990      0.9601
C      5.2863      4.4193     -0.6080
C     17.4518      8.6446     14.7528
H     -3.4465      8.5609      5.4945
H      8.7064      7.6707      3.9438
H     -9.8340     13.6350     10.3671
H     18.6884     12.1081     18.2242
C     -0.7535      3.2591      8.0122
H     20.4120     10.0971     14.7006
C     13.2743      8.8425     12.3018
C      1.5842      2.4379      8.0657
H     10.6999      6.5446     10.6972
H     -1.9235      9.0675     -1.3183
C     -0.6565      6.5872      1.3173
H      5.5188      7.2113     -1.3492
H     -2.5225      2.8691      4.7695
H     18.1076      9.3343     12.7427
H      7.9060      7.0665      6.6672
C      9.9153      7.4639     12.5827
O     15.6894     10.5488     13.8002
C     -5.8077      8.2498      8.0627
C     16.8373      8.6328     20.2500
C     -9.7688     14.1872      9.3792
C      2.2253      1.2317      4.7532
H     -4.7168     11.4918      0.9983
H     -1.2896     10.7316      1.2731
H     -6.5371     13.0125      6.3829
H      3.0972      6.2025      9.1410
C      3.9971      3.6112      3.0759
C     -2.2386      8.2317      0.5010
C     11.1643      6.6958     11.5685
H      7.2087      1.5064      9.1399
C      5.0168      2.3651      5.0501
H    -11.1016     12.2935      9.7177
H     18.6403     12.1449     16.6335
C    -10.6359     11.8014      8.5906
C     -8.5207     11.0612      7.3577
C     -2.5435      5.4254      3.7825
C     16.7335      9.8471     19.4518
C      2.7023      3.6379      2.6452
C     -7.4558      7.1078      9.2970
H    -11.2509     11.5547      7.8299
H     15.3147      7.1939     13.4298
H     -3.0125     13.1964     -1.2396
H      0.3550      3.1895      0.3564
O      5.8016      7.0168      6.4992
C      0.8345      8.3042      4.5547
H     -8.1755     11.7761      6.6466
C     -2.3593      9.0688      3.6416
C     -2.0965      7.8287      2.8353
H     -4.6906     10.3448      9.3008
H      8.6175      3.5111      3.5069
C     -2.1661      8.3611      7.9016
H     -3.4402     15.7500      1.3456
H      2.7427      3.8743      4.6481
H     -0.8099     10.2430     -1.1615
H      3.7830      3.7219      0.7043
C      2.9932      1.5721      1.6565
C     -0.1379      8.7858      1.9283
O      3.7004      4.2961     -0.2297
O      7.3398      3.5718     10.6519
C     -0.5096      2.7917      1.5864
C      0.0948      3.6698      3.9581
C     -5.4375     10.6670      7.5996
H     -3.3390     10.5074     -2.2452
H     15.6854     10.3359     19.5050
H      0.0083     10.1606      4.4064
O      0.4935      9.8471      6.3084
C     -7.0094     10.9719      8.0422
C      0.9902      7.4859      6.7840
C     14.4233      7.4596     13.9907
H     15.8303      8.1811     15.4690
C      0.6385      7.9071      3.1982
H     -5.3507     12.8988      8.1372
C      2.2962      0.0143      3.8199
C      0.3308      2.9665      7.5183
C     -2.5849     11.0456      6.6903
C     -2.2318      3.4973      5.6029
C     17.8544     12.2185     17.4756
C     -9.5276     16.4607     10.2929
C      0.6646      2.2108      1.9502
C     -1.2919      7.9020      1.4882
C     -9.2334     12.0139      8.3447
N      1.5531     -1.0437      4.1945
C      3.4966      1.4299      0.2067
C      9.4448      6.3469      0.2981
H     18.4157      9.4518     18.7926
C     -2.5163      4.3576      2.4794
C     -2.7511      8.1331      9.3628
H      8.6672      2.5106      9.0474
H      1.7342      0.3911      7.3095
H     -4.6869      9.1463      6.3049
C     -2.4568      9.6023      0.1062
H     -7.8482      7.3286      8.2145
H      1.4716      6.9876      9.4377
H     -0.3709      9.8032      2.1489
H     13.9246      8.9115     10.2542
H      2.9704      2.2812     -0.4082
H     -1.6334      4.6158      2.1001
H     -0.6599      3.4858      9.0270
C     14.8773      7.3987     15.3333
H      4.5151      1.7883      0.2630
C     14.1759      9.1683     11.4472
C     19.2132      9.6732     12.6067
H      7.6761      5.1521     11.3652
C     -1.8953     10.1390     -1.2148
H      1.0634     -0.6816      5.1504
C      4.4223      8.3973      4.3934
C      8.1692      7.6563      3.0243
C     21.0038      9.3894     14.1365
C     18.9962      8.2595     14.7987
C      4.4038      6.4713      6.3023
C      1.8614      4.8606      2.6408
C      6.0063      5.5794      0.1148
C      5.8508      7.8612      4.1930
C      8.0694      6.4533      0.7325
H     14.5325      9.9878     12.3346
C      4.1578      5.0091      7.5172
C      1.1957      5.0374      1.2243
H     -3.0431      8.7155      7.4824
C      6.5293      7.5556      5.4157
H      1.1840      0.9960      4.7810
H     -2.9117     14.6821      0.1673
H     -3.3746      3.7691      2.0570
C      7.0826      5.3992      1.1062
H     -0.7760      3.3875      3.9640
O      7.8084      7.4751      5.7418
H      8.4359      9.0804     11.6739
H     21.9042      8.7840     14.4259
H      0.4410      2.9704      3.1814
H      0.5402      4.4225     -0.8202
H      4.8898      5.3248      4.1910
C     12.4307      7.4902     11.4713
H      6.1686      4.9352      6.8467
C     15.5152      6.2138     15.8710
C     -2.1161      4.8918      5.2850
C      0.6903      7.0812      5.2869
H     20.1260      9.4781     10.5177
H      2.6188      2.3142      4.5241
C      1.2170      5.8954      4.7216
H      2.2965     -0.8383      1.7416
H     15.4941     10.3218     15.9921
H     -1.9822      7.5950      9.8446
C     -4.8293      7.0458      8.2786
C     -9.0789     13.5325      8.2243
C      6.7380      8.0164      3.0078
C     -2.9046     10.6061      5.3757
C     -0.2975      6.3745      2.8316
C     -1.5128      6.7556      3.8250
H     -2.3630     11.3876      8.7004
H      1.6428      3.2214     -0.3160
H      5.6637      3.4640     -0.9992
H     -2.9681      3.2603      6.3744
C    -11.2797     14.3598      9.0521
H     -1.5211     11.2170      6.4113
C      0.6055      5.3508      3.3998
C      5.0740      3.4830      2.4074
H      1.3507      4.5527      7.9040
H     17.8108      8.4348     20.7414
C      6.9693      3.5628      9.5147
H     -2.7256     11.2427      1.3759
H     -5.2315     11.2086      6.6489
C      2.3645      6.8876      8.8892
C     -1.5009      5.9841      5.9368
C      2.5531      0.1706      2.4062
C      1.2855      4.9057      5.6373
C      2.1019      6.7807      7.3778
C      0.7228      4.0931      0.0985
H     -1.7300      6.0690      1.1852
H      4.0984      2.1127      2.1080
H     -2.8526      8.9500     10.0832
H      3.9076      0.3941     -0.3156
H     -3.7152      6.9618      7.6297
H      7.9514      2.5205      7.7503
H     -1.8646     10.7401      4.9595
C     -3.9567     12.2492      0.4157
H      6.3019      0.9974      3.8785
C     -0.0581      9.2901      5.1560
C     -4.0332      7.3566      9.5887
H      5.0464      4.9321     -1.6443
H     -3.1306      9.7325      2.9505
C     -4.5521     11.2149      8.5151
H     -2.7886      3.5369      3.1760
H     -3.7689     11.0509      4.6357
C      0.1572      7.9207      7.7730
C      0.6981      3.6678      5.3308
O     -3.8508      5.8482      4.2593
C     -1.2869      8.4918      5.7232
C     -6.8856     13.8919      7.0506
C      5.0554      1.8559      6.4165
C      2.5581      0.8088      6.4723
H     -5.9905     14.1816      7.3313
H     -8.1935     16.0584      8.8813
H     -5.1511     12.8455     10.0030
H      1.4011     10.5773      6.1503
H     17.4056     13.2724     17.8636
H     -0.0859      8.1289      8.8755
C      1.8587      5.0119      6.9464
H     -0.3395      3.9057      1.8240
C      4.0481      5.5560      4.9781
C     -9.1578     15.7541      9.1419
H     21.0967      9.9756     13.2734
H      0.5946      6.2237     -0.0640
C      8.1466      7.2019     10.5789
H     -9.1442     15.9884     11.1668
H     11.2858      5.7713     12.1368
C      4.3093      3.3784      4.6530
C     17.5087      9.7422     18.2995
C     -6.8123     12.0536      9.0919
C     -5.1260      9.3215      7.4708
C      5.6377      4.5880      7.6782
C     -7.4850     13.3534      8.4737
H     -1.7811      3.3994      7.5659
H     -3.4000      9.9863     -0.3765
H      9.8494      5.4536      0.7270
C     14.7240      9.8003     14.2489
H     -9.1564     17.6222     10.2282
H     -1.6572      9.7167      3.1646
