291

C     19.9100      8.6341     13.8309
N     10.6475     -2.1867      1.2592
C      3.7981      1.2848      7.0617
C      1.9548      2.3113      2.9820
H      1.3732      0.4441      9.0618
C      7.5448      4.9034      2.5957
H      9.7820     -5.7204      2.1129
C      7.5758      3.5620      3.1808
C      3.3259      4.3774      5.6756
C     18.6649     10.2162     12.3275
C     16.0513      7.5325     19.3246
C      5.8705      2.1680      4.2738
C      6.4278     -3.1555      9.2596
C     13.9595      8.7151     13.6715
C      9.5302     -0.7441     -0.6474
C      8.5053      0.5395      1.0819
N      0.3727      2.6204      6.1622
C     13.7291     -6.7801      0.6956
O     -1.0128      2.5915      0.9252
C      3.3732      4.3971      7.2375
H     12.8750      6.4669     11.0018
H      7.7843      0.2713      1.8537
C     15.6589      6.3346     17.4457
C     17.2305     10.7005     16.0327
H     -2.6014      3.6898      6.0502
H      4.4106      6.2490      0.2592
C     17.1775      9.2102     15.8927
H      4.9314      7.0024      9.0132
H     19.0501     10.8614     11.5124
H      4.0712      6.0579      8.4093
H     -1.2801      5.4912      6.4802
H      5.5973      1.4390      9.4928
C      3.0952      2.9922      7.9317
H     10.1623     -1.9152     -2.3167
H      6.8401      1.5981      4.6031
O     14.5667     10.1358     15.3767
C      7.7613     -0.5583      8.9042
C      9.7541     -2.0285     -1.4758
C      6.2985      5.8185     10.0471
H      2.0785     -0.2625      8.4894
H     15.4011     -6.9822      9.4418
C      6.2431      3.3257      3.4563
H      5.2380      3.3188      7.8291
H     18.1710     10.8166     13.1322
H      4.0360     -1.1292      9.3599
H     15.9332     -5.2928      9.0367
C     17.8835     10.8283     17.3927
C     10.1200     -4.1453      4.9590
O     14.8922     -4.1720      4.9545
C     11.4456     -4.4494      6.9495
C      8.6184      7.8319     12.0370
C     20.7831      7.4374     13.1179
C      6.6653      6.8064     -0.4912
H      4.7373      3.7305      1.9655
H     17.6261      9.4848     13.9775
H      1.0040     -2.0219      3.8138
H      6.9726     -6.0678      9.0808
H     16.3140     10.4245     12.4359
C      8.3422      2.9600      9.2068
H      0.6987      1.2840      1.4635
C      7.2418      6.3015     11.2686
C      7.8218      5.8423      3.4587
H      8.3250      6.9547      2.1084
C     -1.2184      6.8705      5.0798
H     15.9739      8.8952     20.9023
H     17.5149     11.4642     15.3857
H     17.0037      6.0159     15.4549
H      2.4947      3.3689     10.9963
H     15.5877     -7.6941      0.9893
C      9.8600     -1.8577      7.8344
C      6.4514      4.8380      9.0670
C     16.0680      7.8030     17.8322
C      9.4481      1.6387      0.9716
C      5.4607      4.6039     -0.2807
C     17.5872      8.7541     14.6954
H      8.1370      7.4639      3.9110
H      3.8829      0.8396     10.2388
H      7.4173     -3.3335      9.7519
H     18.2696     12.3598     18.4408
C     -0.0939      3.8584      8.0090
H     20.9108      9.5092     15.2924
C     13.6334      8.5627     11.9480
C      1.6836      2.4986      8.3020
H     10.4441      7.3467     10.6189
H     10.8654     -3.9031     -1.6190
C     12.5062     -6.7289      1.5067
H      5.8411      7.7864     -0.8023
H     -1.7314      2.4302      4.4683
H      7.2422      6.6983      6.3277
C     10.0256      7.4278     12.7611
O     15.9007     10.4419     13.4733
C      7.0943     -4.2866      8.2336
C     16.6725      8.5744     20.2565
C      3.4768      1.2772      9.2630
C      2.8089      0.1705      5.0796
H     21.1368     10.6283     14.3372
H     10.9300     -2.1055      2.3337
H      6.9762      0.9456      6.9451
H     -2.8247      5.5013      5.6560
H      4.3254      6.1878     10.6883
C      3.8409      3.7448      3.7551
C     11.0192     -4.5063      0.5637
C     11.0047      6.9456     11.7153
H      8.8124      2.5676     10.1378
C      5.0887      2.6586      5.4746
H      2.2395     -2.0563      9.1291
H     17.9987     12.8772     16.7499
C      2.5131     -1.1633      8.2449
C      4.8251     -1.8188      7.5290
C     -2.0710      5.1182      3.3514
C     16.9921     10.1220     19.5242
C      2.4917      3.6392      3.1920
C      5.1359      6.7433     10.0608
H      2.4794     -1.7215      7.3612
H     15.7790      7.5253     12.9737
H      8.6656      6.8712      4.3599
H     10.1532     -0.0268     -1.0850
H     15.6428     -9.1450      0.0011
O      5.5557      7.1678      6.7929
C     13.6127     -4.7720      4.4674
H      5.1120     -1.1334      6.6711
C     10.3793     -4.0628      3.3352
C     10.6944     -5.3547      2.8092
H      8.4507      3.2998      3.6133
C     10.2805     -4.3977      7.7228
H      9.8922      2.1123      1.9776
H      1.8293      1.8191      3.9351
H     12.0333     -2.4773     -1.3349
H      3.6438      4.4256     -0.5720
C      3.0238      1.0385      2.1851
C     13.0174     -4.4400      1.9719
O      4.2335      5.0904     -0.9436
O      7.2803      3.7003     10.9059
C     -0.1819      3.1456      1.9088
C      0.1871      4.0598      4.3027
C      7.1957     -2.1240      7.2860
H      8.9742     -2.7498     -1.6310
H     16.0086     10.4017     18.8188
H     12.3886     -3.1166      3.8896
H     12.2831      8.1906     10.6273
O     13.0146     -2.9152      5.9106
C      6.0770     -1.9555      8.1682
C     13.6085     -5.7032      6.7784
C     14.9053      7.3021     13.8422
H     15.7715      8.4794     15.6720
C     13.5616     -5.2548      3.0282
H      7.9665      0.5206      8.3800
C      1.8799     -0.2685      4.1541
C      0.6456      2.8788      7.5868
C     10.3501     -2.0247      6.6024
C     -2.3622      3.3118      4.9365
C     18.2842     12.1558     17.4869
C      2.7548      3.8718     10.0442
C      0.5833      2.0811      2.2316
C     11.7409     -5.3235      1.6235
C      3.8594     -0.8758      8.4141
N      1.1985     -1.3371      4.6740
C      2.9795      1.4512      0.8580
O      5.2103      6.3143      1.0612
C      9.5328      6.3841      0.6549
H      6.5750     -3.8691      6.4166
C     -2.8157      4.3055      2.4584
C      9.9610     -5.6139      8.5421
H      8.4095      2.4770      8.1647
H      1.7248      0.7243      7.0117
H      8.5749     -3.8858      6.6618
C     10.9785     -3.1923      0.2961
H      5.4549      7.8347     10.7006
H     14.3567     -5.4259      9.3638
H     12.7935     -3.5507      2.3544
H     13.3218      9.1730      9.9541
H      3.4814      2.3249      0.8307
H     -1.7741      3.1693      1.0796
H      0.3182      3.8969      9.0100
C     15.1244      7.3790     15.4011
H      3.0429      0.8769     -0.0306
C     14.2343      9.2523     10.9903
C     19.3911      9.0973     12.5442
H      7.8184      5.3483     11.3900
C     11.0386     -2.9307     -1.1282
H      0.5957     -1.3785      5.6594
C      4.2609      8.5444      4.2855
C      7.8389      7.3939      3.0128
C     21.1082      9.5986     14.2971
C     19.1037      8.3373     14.8452
C      4.2306      6.3077      6.4555
C      2.0645      4.8552      2.5822
C      6.1399      5.7058      0.3830
C      5.4882      7.6371      4.2197
C      8.2792      6.2326      0.8660
H     15.2506      9.8911     11.0244
C      4.4628      5.3310      7.4982
C     14.5564     -7.9702      1.1542
H      9.4768     -3.7535      7.4699
C      6.0407      7.3896      5.4786
H      0.0779      1.5550      5.9016
H      9.9001      1.8922      0.0178
H     -3.4919      5.0650      1.9001
C      7.3112      5.1901      1.2238
H      0.1371      3.0428      3.7760
O      7.2496      7.1816      5.4865
H     22.3460      9.4471     13.7845
H     13.9500     -9.7943      0.4679
H      4.6127      5.5715      4.4426
C     12.5904      7.5515     11.3721
H      6.1553      4.4001      6.9853
C     15.9372      6.3123     15.7326
C     -1.3987      4.3950      4.6191
C      0.3725      6.9105      5.3876
H      5.9736     -3.4660     10.4687
H      2.8448      2.3717      5.1777
C      1.3940      5.8234      4.8409
H      1.4307     -0.5857      2.0914
H     16.1159     10.9049     16.2283
H     10.0871     -6.4770      7.9197
C      7.5050     -5.4820      8.4406
C      4.1578      0.6204      8.3507
C      6.3642      7.7883      3.0177
C      9.8388     -2.6677      5.3654
C     12.9806     -6.6523      2.9356
C     -1.4160      6.5303      3.4371
H     10.5133     -1.0824      8.3321
H     14.0733     -8.2607     -0.6757
H     17.1893      7.8962     14.1420
H      5.0975      3.9680      0.4635
H     -3.2424      3.3031      4.2566
C      1.9117      1.4795      9.2787
H     11.5424     -2.5881      6.6811
C      0.6987      5.2789      3.6285
C      4.9898      4.0404      2.8972
H     14.0330     -7.6667      7.9743
H     17.1435      7.7139     20.9972
C      7.3506      3.8912      9.7403
H     10.0751     -1.3551      0.8626
H      6.8959     -1.6879      6.2013
C     15.1157     -5.9338      8.6964
C     -1.7410      5.6430      5.5657
C      2.3064     -0.1742      2.7933
C      1.7943      4.7318      5.8390
C     14.9879     -6.2836      7.2240
C     14.6133     -9.0082      0.1523
H     11.9570     -7.8285      1.5218
H      3.8516      1.0103      2.9927
H      9.5397     -4.2057      9.8097
H      1.8806      1.7718      0.8586
H      8.1975     -6.0223      7.8389
H      7.5108      1.9856      9.7519
H     10.0533     -1.9863      4.3034
C      8.3095     -0.4168     -0.1285
H      5.2616      1.2336      3.5509
C     12.6450     -3.7629      4.9780
C      9.2921     -5.0820      9.7125
H      5.9845      3.9656     -1.1345
H      9.4712     -3.5033      2.9311
C      8.3898     -1.7832      8.0656
H     -2.7013      3.0975      2.6816
H      8.7453     -2.5768      5.1363
C     12.6425     -5.0247      7.5315
C      0.9073      3.6785      5.4307
O      8.7593      5.9134      4.3257
C     11.5188     -4.5676      5.5916
C      6.1420      1.4421      7.4489
C      5.0017      1.6643      6.5181
C      2.6056      0.6526      6.3193
H      6.4958      2.5082      7.6814
H      4.7970      3.0160      9.3482
H      8.3066     -0.3887      9.9396
H     13.8076     -2.8652      5.4913
H      3.7879      0.1596      4.7531
H     12.7930     -5.1240      8.7095
C     14.9858     -7.8664      7.3720
H     -0.4336      4.0740      2.3027
C      3.7927      5.6811      5.1367
C      3.7598      2.7611      9.2352
H      7.3155     -0.8004     -0.4084
H     12.8721     -7.0048     -0.1251
C      8.1599      7.4337     10.7638
H      1.8409      4.4737      9.2832
H     11.1902      5.8996     11.4166
C      3.8705      3.2291      5.0649
C     17.3953      9.7212     18.0995
C      6.1642     -0.6496      9.1179
C      7.4839     -3.5330      7.0240
C      5.6103      4.4464      7.8720
C      5.5983      0.7053      8.6172
H     20.3796      9.4017     11.7600
H      6.2164     -0.7716     10.3047
H     10.7161      5.6967      0.5802
C     14.6655      9.9106     14.1236
H      3.3267      4.8068     10.1853
H     10.8713     -3.1049      3.2392
