287

C      7.1528      8.8104     13.8428
N     10.8512     -2.4510      1.0271
C      3.7759      1.3598      7.2413
C      1.9386      2.7301      3.0911
H      1.0896      0.4766      9.6321
C      7.8905      5.2351      2.5132
H      9.9542     -5.9437      2.4442
C      7.6929      3.9489      3.1546
C      3.4062      3.9518      5.6805
C      6.2945     10.3171     11.7001
C      3.1894      7.3771     19.6548
C      6.3198      2.1560      4.2932
C      6.2792     -3.2747      8.7742
C      0.8920      8.7331     13.5212
C      9.2294     -1.1373     -0.1883
C      8.0323      0.8833      0.8814
N      1.0474      2.4225      5.8311
H      5.2852     10.6089     11.9396
C     13.5985     -6.7943      0.5335
O     -0.5826      2.4196      0.1593
C      3.4008      4.1105      7.3169
H      0.3638      6.6058     10.7523
H      7.1927      1.1134      1.6080
C      2.7876      6.4017     17.3076
C      3.7273     10.6675     16.4737
H     -1.3906      2.0847      5.4993
H      4.3598      6.3041      0.6870
C      4.1091      9.3143     16.1390
H      4.8858      7.5006     -3.7533
H      7.0048     11.1091     11.2927
H      4.0372      5.2065     -4.1129
H     -0.8841      4.9437      6.6343
H      5.7818      1.0823      9.6772
C      3.1330      2.6567      7.8973
H     10.6316     -1.2247     -1.9825
H      7.1113      1.6420      4.3681
C      7.5538     -0.7573      8.9939
C      9.8156     -1.7192     -1.4969
C      6.1339      5.8491     -2.8000
H      1.6973      0.0705      8.6761
H      1.8439      6.1616      9.4592
C      6.6217      3.4450      3.5804
H      5.4243      3.5292     -4.5226
H      3.7180     -1.0015      9.7842
H      3.3135      6.7168      8.9239
C      4.6820     11.0670     17.4224
C     10.1724     -4.2504      4.9604
O     15.1051     -4.3149      4.6475
C     -1.2770      8.0942      6.9918
C     -3.9692      7.9981     11.8692
C      7.8039      7.5243     12.8412
C      6.5973      7.0212     -0.7177
H      5.6596      4.3527      2.0477
H      4.7972     10.2660     13.9405
H      1.7950     -2.3856      5.2213
C      7.7360      2.6137     -3.9596
H      0.7610      1.2895      2.3020
C      7.2288      6.3091     -1.8611
C      8.4019      6.1724      3.4989
H      8.4013      8.0678      2.1873
C     -0.9270      6.7370      5.0936
H      3.8240      8.9150     21.3923
H      3.8144     11.0989     15.4025
H      3.8840      6.4125     15.4371
H      2.4075      4.7329     10.1940
H     15.4515     -7.3366      0.7452
C      9.5342     -1.3962      7.5852
C      6.4727      4.7642     -3.5913
C      3.2446      7.7779     17.9950
C      9.2070      1.5160      0.7336
C      5.8697      4.4370      0.0982
C      4.7251      9.2368     14.6334
H      8.1721      8.0492      4.1285
H      4.0034      0.9105     10.6765
H      6.9577     -2.9284      9.5892
H      5.7050     12.9504     18.0854
C     -0.2799      3.2851      7.9871
H      8.1272     10.0746     15.0071
C      0.6922      8.5033     11.9846
C      1.9277      2.1204      8.4120
H     -1.8137      6.0776     10.8607
H     10.8240     -4.0271     -1.5318
C     12.2848     -6.6242      1.5329
H      5.8212      7.5689     -1.1174
H     -2.0843      2.3121      4.0224
H      7.3035     -5.7923      6.7433
C     -2.5815      7.4085     12.3637
O      2.5021     10.5750     13.2428
C      6.3301     -4.3243      7.4678
C      3.7959      8.5497     20.4228
C      3.5052      1.2155      9.6965
C      3.0417      0.2425      5.0989
H      8.7886     10.3831     13.5808
H     10.0907     -2.4642      1.8048
H      7.0125      1.6603      7.1801
H     -2.4031      6.2298      6.2564
H      4.0802      6.4896     -2.5641
C      4.1949      3.7387      3.5332
C     10.9708     -4.5929      0.3297
C     -1.3944      6.7883     11.5233
H      8.6567      2.1634     -3.6130
C      5.2450      2.1481      5.3874
H      1.4569     -1.2655      9.1558
H      4.8811     12.7861     16.7342
C      2.0520     -0.9254      8.4070
C      4.4399     -1.8200      7.4456
C     -2.0781      5.2410      3.6201
C      3.6876      9.9226     19.5570
C      2.9904      3.7364      2.7391
C      5.0476      6.8763     -2.8541
H      2.2264     -1.5293      7.3436
H      2.4416      7.1149     13.0494
H      0.2790     11.8003     13.6353
H      9.8503      6.1731      4.3692
H     10.0187     -0.5218      0.3801
H     15.1351     -9.4711      0.9301
O      5.6284      6.5371      6.3936
C     13.8350     -4.7097      4.3876
H      4.5934     -1.0559      6.4803
C     10.3099     -3.7947      3.5353
C     10.6352     -5.1521      2.8320
H      8.4360     -2.8476      8.5276
H      8.5093      3.4999      3.9760
C     -2.5842      7.5580      7.3942
H      9.5375      2.0375      1.5756
H      1.5508      2.1816      4.1640
H     11.6496     -2.7706     -1.1147
H      4.9374      6.0763     -0.4988
C      2.7864      1.3011      2.4609
C     12.7518     -4.1957      1.8832
O      4.6427      5.1259     -0.5926
O      7.5177      3.9002     -1.8528
C      0.0971      3.1370      1.3437
C      0.0438      4.0664      4.0681
C      6.9412     -2.0550      6.8868
H      9.0453     -1.9952     -2.3278
H      2.7896     10.3680     19.2614
H     12.2020     -3.1245      4.2222
H     -0.6441      8.1494     10.2902
O     13.2740     -3.1659      6.0616
C      5.8851     -1.9884      8.0760
C      0.8383      7.3014      6.8907
C      1.5724      7.3403     13.7275
H      2.1744      8.6649     15.3789
C     13.5032     -5.1003      2.9696
H      7.7431      0.0707      8.5955
C      2.2028     -0.5744      4.1844
C      0.7199      2.4165      7.4849
C     10.3390     -2.2432      6.7418
C     -1.9696      2.8594      4.9112
C      5.4035     12.1283     17.4324
C      3.0360      3.7150     10.4217
C      0.5598      2.4175      2.3556
C     11.6425     -5.1564      1.5082
C      3.6872     -0.9114      8.5648
N      1.4791     -1.4676      4.9203
C      2.1855      1.1717      0.8154
O      5.1202      6.2029      1.3839
C      9.7543      6.3346      0.4953
H      5.5339     -3.2582      5.9223
C     -2.4548      4.5471      2.4300
C     -2.5505      7.4849      8.8364
H      7.8642      2.8972     -4.8003
H      1.7794      0.0726      6.4530
H      7.0948     -4.2910      5.6788
C     10.6803     -3.3631      0.1391
H      5.9056      7.5398     -2.2247
H      2.1358      7.9372      9.1150
H     12.1147     -3.3941      2.3475
H      1.8733      9.2930     10.0660
H      2.9722      1.3089     -0.0051
H     -0.5303      3.0606     -0.6030
H     -0.4624      4.0654      8.6516
C      1.9339      7.5917     15.2397
H      1.3733      0.1819      0.5352
C      1.4533      9.3909     11.1166
C      6.9159      9.7117     12.7021
H      7.7600      5.3591     -1.5520
C     10.6212     -2.9847     -1.2411
H      0.8118     -1.9282      4.3426
C      4.4681      8.6542      4.4163
C      7.8439      7.5354      2.9872
C      8.3911      9.4142     14.1964
C      6.1353      8.6928     14.8189
C      4.0447      6.1073      6.6048
C      2.0017      5.1439      2.4754
C      6.2229      5.8286      0.5611
C      5.4494      7.4312      4.0659
C      8.3396      6.4720      0.6343
C      4.4604      5.1062     -5.2117
O      0.2688     10.8391     13.4643
C     14.5980     -7.8251      1.1022
H     -3.3720      7.7505      7.0497
C      6.2718      7.0821      5.3265
H      0.3558      1.7167      5.5069
H     10.2640      1.3873      0.2389
H     -2.7842      5.1231      1.3870
C      7.5062      5.5641      1.2350
H      0.1143      3.2494      3.2434
O      7.5584      7.3360      5.7007
H     -5.6298      8.6794     10.4405
H      9.2191      8.6551     14.0824
H     13.8982     -9.3847     -0.6861
H      4.5667      5.1230      4.4339
C     -0.1821      7.4299     11.0390
H      6.2733      4.3097     -5.7368
C      2.7125      6.3702     15.8061
C     -1.5489      4.3742      4.8294
C      0.4101      7.0198      5.3612
H      5.7132     -4.0877      9.4321
H      3.4173      2.0662      4.7175
C      1.3304      5.9412      5.0244
H     -2.7090      6.6288      9.2193
C      7.1475     -5.5425      7.9652
C      4.0590      0.5094      8.4625
C      6.3422      7.6900      2.9569
C      9.5211     -3.0765      5.7699
C     12.7452     -6.4653      3.0146
C     -1.4433      6.7913      3.7488
H      9.9415     -1.4446      8.6684
H     15.8690     -9.0445     -0.3901
H      4.0865      8.5188     14.4108
H      6.0774      3.8236      0.8696
H     -2.6134      2.8931      5.6893
C      1.9532      1.0845      9.5163
H     11.2572     -2.6976      6.9733
C      0.6963      5.2987      3.6533
C      5.4015      4.1888      3.1283
H      1.2548      4.9852      8.2026
H      4.9781      8.4813     20.4225
C      7.2003      3.7760     -3.0359
H     11.4264     -1.6463      0.6669
H      6.5223     -1.5517      6.0739
C      2.3422      7.0059      8.8269
C     -1.4691      5.4107      5.8046
C      2.1482     -0.2014      2.8850
C      1.3766      4.8617      6.0025
C      2.1071      6.5919      7.4635
C     14.7676     -8.8632     -0.0497
H     11.6202     -7.4417      1.4286
H      3.8450      1.4107      2.6474
H     -3.4519      9.1832      9.1828
H      1.5045      2.0957      0.5895
H      7.0075     -6.3234      8.7887
H      7.1474      1.7506     -3.7281
H      8.9312     -2.5293      4.9249
C      8.1538     -0.3562     -0.1069
C     12.7518     -3.7908      4.8335
C     -3.8074      8.3025      9.4139
H      6.3748      3.9630     -0.6653
H      9.2727     -3.7565      3.2779
C      8.1323     -1.7968      8.1078
H     -3.1007      3.6700      2.4377
H      9.0446     -3.6484      6.5144
C     -0.0793      7.8137      7.8454
C      0.8260      3.6553      5.2547
O      8.9889      5.8623      4.5666
C     11.6056     -4.6008      5.5688
C      6.2274      1.5635      7.4526
C      5.0841      1.4359      6.5522
C      2.8255      0.4228      6.4113
H      5.7296      2.4128      7.8746
H      7.3463     -0.8012     10.0639
H     12.5034     -3.4764      6.7435
H      3.7693      0.3074      4.4090
H     -0.1246      8.3792      9.0598
C      1.9263      4.9072      7.3543
H     -0.4961      4.1913      1.1408
C      3.8447      5.3643      5.2759
C      3.7642      2.5991      9.4272
H      7.3397     -0.8312     -0.8201
H     13.9341     -6.8166     -0.4447
C     -4.6261      8.0954     10.6327
H      3.7039      3.9467     11.1479
H     -0.8593      6.3677     12.4766
C      4.0378      3.0226      4.7651
C      4.6589      9.8815     18.3418
C      6.0696     -0.8332      8.9100
C      6.7657     -3.4543      6.5051
C      5.7561      4.5622     -5.0152
C      5.5869      0.4977      8.4694
H      7.9617      9.4755     12.2797
H      5.4993     -1.4178      9.7396
H     10.8369      5.9229      0.8027
C      1.5165     10.0845     13.8096
H      2.2922      3.0653     10.7720
H     10.7855     -2.8575      3.6592
