288

C      6.6312    -17.0333     13.7695
N     -1.8803     10.6956      1.0936
C      4.0593      1.6642     19.9265
C      2.5306    -10.5464     14.9800
H      1.2503      1.4871     22.8275
C      8.1562     -7.9914     15.2752
H     -2.9523      6.6654      2.4128
C      7.8217     -9.2885     16.0359
C      3.5069      4.4448     18.6542
C      6.3297    -15.7314     11.7767
C      3.1288     -5.4662     19.6865
C      6.1364      2.1646     17.2502
C      5.9457     -3.7284     21.4430
C      0.8112      8.7770     13.8790
C     -3.6230     12.0747     -0.2533
C     -4.9741     13.8669      0.7674
N      0.4045      2.8323      6.3765
H      7.2452    -16.3085     11.4952
C      1.2654      6.4538      0.6208
O     -0.3027     -9.9639     13.2155
C      3.4781      4.2346     20.3244
H     -0.2997      7.8685     10.6463
H     -5.7728     14.4004      1.3047
C      2.9981      6.4688     17.5865
C      3.3272    -15.3422     16.3887
H     -1.7166      3.1103      6.5051
H     -8.3709      6.4252     13.1292
C      3.7386    -16.8406     16.2134
H     -7.3555      7.4832      9.2409
H      5.9643    -15.1232     10.8317
H      5.8976      3.6709     18.4090
H      3.7709      5.9248     21.4416
H     -0.5288      5.2678      6.4539
H      6.2948      0.7937     22.7306
C      3.5391      2.8581     20.8365
H     -3.4737     11.8328     -2.2020
H      7.0129      1.6413     17.8146
C      7.7660     -1.2594     22.1026
C     -3.6344     11.1689     -1.2333
C     -6.7614      5.6293     10.2581
H      1.7792     -0.2348     22.2522
H      2.1983      5.7959      9.5891
C      6.4691     -9.4092     16.3885
H     -7.8386      3.8421      9.0005
H      4.5272     -1.5017     22.8815
H      2.7380      7.3080      9.4987
C      3.8130    -14.8377     17.5481
C     -2.7593      8.6808      4.9240
O      1.7519      8.8117      5.1811
C     -1.3434      8.2890      6.8499
C     -4.1252      8.1046     11.9355
C      7.4839    -18.1503     13.0505
C     -6.4847      6.6715     12.3056
H      5.2724     -7.5283     15.3448
H     -6.5022      3.4805     12.8634
H      5.1010    -15.7612     15.3435
H      0.6986    -13.7746     17.4614
H      8.2243     -5.1287     21.8432
C     -5.0452      2.6450      8.6603
H      0.7464    -11.5643     14.0913
C     -5.8903      6.0330     11.2294
C      8.4695     -6.8288     16.2915
H      8.4404     -4.8260     16.7027
C     -1.0223      6.6618      4.9932
H      3.7178     -4.7235     21.4944
H      3.5072    -14.6657     15.6815
H      3.8376      6.1813     15.6324
H      4.1545      4.5516     23.4976
H      3.1375      6.0473      1.1178
C     -3.6786     11.3477      7.3318
C     -6.2985      4.7690      9.2025
C      3.1187     -5.1443     18.2497
C     -3.9624     14.7632      1.1232
C     -7.1666      4.2879     13.0308
C      4.5276    -16.7853     14.9976
H     -3.5797      8.0110      5.4627
H     -3.4855      8.8964      2.4487
H      3.2320      0.4070     23.5311
H      6.7944     -3.4612     22.1317
H      5.2586    -13.3439     18.5802
C      0.1813      2.7770      8.7986
H      7.0697    -15.0160     14.8681
C      0.3312      8.5487     12.2718
C      2.3106      2.3510     21.2127
H     -2.1628      6.8514     10.5841
H     -1.6587      9.9876     -1.9251
C     -0.1716      6.2327      1.2918
H     -7.3644      7.5020     12.6128
H     -1.5839      2.1935      5.3762
H      8.8095     -5.2430     20.1162
C     -2.8823      7.6888     12.5215
O      2.6867     10.4924     13.6027
C      7.1120     -4.1762     20.2595
C      3.8158     -4.3874     20.3990
C      3.5320      1.2458     22.6553
C      3.5397    -12.2369     17.6061
H      8.6442    -16.0796     13.8080
H      7.3649      1.2216     20.0195
H     -2.2201      5.2241      6.5275
H     -8.8121      6.9005     10.0679
C      4.1713     -9.3657     16.6573
C     -2.1532      8.6422      0.3632
C     -1.8744      6.9618     11.7241
H     -5.0397      1.6097      9.2009
C      5.4087      2.8026     18.3468
H      1.6719     -1.6941     22.0174
H      5.1021    -13.5492     16.7291
C      2.3613     -0.9424     21.4940
C      4.3809     -1.8428     20.5686
C     -1.5162      4.8528      3.2527
C      3.5035     -3.0204     19.8325
C      2.9498     -9.1532     16.0179
C     -7.7824      6.7417      9.9392
H      1.9964     -0.6264     20.4246
H      2.8572      7.5789     13.6541
H      0.2207     12.0036     14.1439
H     -2.8692     12.8259      0.1106
H      2.3456      3.5159      1.1683
O      5.5860      6.8900     19.3660
C      0.6767      7.9816      4.5501
H      4.5217     -0.9444     19.7091
C     -2.8747      8.5914      3.3074
C     -1.9985      7.2063      2.6276
H      8.6051     -3.0140     21.1088
H      8.9413     -9.5952     16.4066
C     -2.1695      8.7007      7.6547
H     -3.8994     15.5425      1.9512
H     -1.7880     11.4247     -0.9670
H     -8.9247      4.8222     12.4086
C      2.9795    -12.0915     14.7295
C      0.0269      8.3847      2.0104
O     -8.0112      4.7151     11.9945
O     -4.8960      3.3286     10.8109
C     -0.0459     -9.9098     14.3372
C      0.2943      3.7738      4.1679
C      6.8366     -2.0071     20.0302
H     -4.2545     10.4294     -1.4801
H      2.2483     -2.7891     19.6435
H     -0.9293      9.0118      3.6958
H     -1.2192      8.7876      9.7990
O     -0.3939     10.0323      5.5524
C      5.6919     -2.1453     20.9512
C      0.7868      7.1130      6.6422
C      1.8887      7.7778     13.9300
H      2.5323    -17.2790     15.7771
C      0.7755      7.6328      3.1042
H      8.0428     -0.1505     22.0572
C      2.2272    -12.7979     17.1065
C      0.9548      2.6919      7.6695
C     -2.6410     10.9988      6.3952
C     -1.7764      3.2079      5.5246
C      4.6165    -13.6179     17.7795
C      3.6575      3.8774     22.9938
C      0.9274    -10.7484     14.9627
C     -1.1119      7.5037      1.4086
C      3.7805     -1.2244     21.7704
N      1.6561    -13.6357     17.8988
C      2.5847    -12.3023     13.3078
O     -7.9634      6.4004     14.0632
C     -3.5400      6.4611     13.4930
H      5.5167     -3.0939     18.7412
C     -2.4110      3.9659      2.5620
C     -2.1776      8.3453      9.2149
H     -3.9302      2.7103      8.3216
H      2.7884      0.1542     19.4997
H      8.1726     -3.2253     18.5851
C     -1.9114     10.0164     -0.0261
H     -7.8387      7.2991     10.8734
H      1.2446      7.1542      9.3544
H     -0.7621      9.3925      1.8009
H      1.7025      8.6393     10.4132
H      1.6160    -13.1633     12.8497
H      0.7836      2.4937      9.6696
C      2.2005      7.5721     15.3851
H      1.5331    -11.6467     13.2915
C      1.4641      8.5675     11.4898
C      5.6261    -16.0497     12.8027
H     -5.1985      5.1225     11.5560
C     -2.2115     10.5043     -1.2993
H      1.3734    -13.7256     18.8156
C      4.2012     -4.3270     17.5175
C      8.0177     -5.5061     15.9331
C      7.6653    -15.8656     14.5301
C      5.8098    -17.4780     14.9438
C      4.3752      6.3556     19.5811
C      2.0457      5.1082      2.7901
C     -6.8674      5.5768     13.4992
C      5.4027     -5.0732     17.2720
C     -4.7209      6.9150     14.1324
H      2.4300      9.1136     11.6770
C      4.4191      5.3575     20.7635
O      0.2703     11.1406     13.5208
C      2.2106      5.3413      1.0370
H     -3.1978      9.0179      7.3436
C      6.1018      7.2242     18.2546
H     -2.9490     14.7062      0.3109
H     -2.8004      3.8600      1.6982
C     -5.6451      5.6044     14.3860
H     -0.2717      3.1466      3.5695
O      7.4794      7.2170     18.2493
H     -5.1032      8.2502     10.4379
H     -2.7440      8.9419      1.3002
H      0.8087      4.2166     -0.2492
H      4.9069      5.4306     17.4139
C     -0.6309      7.8124     11.6904
H     -7.2917      3.9476      7.3496
C      2.9525      6.4246     16.1856
C     -1.0860      4.1429      4.6586
C      0.4656      6.7647      5.3824
H      5.0525     -3.9868     21.7593
H      2.3358      1.7435     19.0674
C      1.4595      5.6173      4.9095
H      1.2332    -13.3499     15.1035
H     -1.7767      7.3229      9.2520
C      7.8230     -5.3772     20.6704
C      4.2118      0.2929     21.5707
C      6.3330     -5.1249     16.0148
C     -3.1042     10.1524      5.1474
C      0.0959      6.2670      2.8269
C     -1.1864      6.2570      3.4720
H     -3.0776     11.8298      8.0141
H      3.9456    -16.8545     13.9367
H     -7.6237      3.9384     13.9262
H     -2.9542      3.4166      5.4468
C      2.0482      1.6709     22.3242
H     -1.6229     11.1039      6.7445
C      0.9502      5.1126      3.7373
C      5.3690     -8.5809     16.1806
H      1.5018      4.7496      8.1605
H      4.7596     -4.6876     19.9449
C     -5.4205      3.6969      9.8075
H     -1.9252     11.6356      1.0816
H      6.5573     -0.9397     19.4626
C      1.9322      6.6931      8.9241
C     -1.4228      5.4087      5.6806
C      2.0851    -12.6896     15.7123
C      1.9445      4.4744      5.8247
C      1.9991      6.6684      7.3927
C      1.8964      4.1712      0.2708
H     -0.4463      5.2671      0.7206
H      4.1000    -11.9931     14.8930
H     -4.1867      9.4143      9.2114
H      3.2275    -11.9294     12.6108
H      7.4925     -6.4630     20.2319
H     -5.9968      2.9044      7.9798
H     -2.5255     10.7358      4.2697
C     -5.0366     12.6054      0.0619
H      5.4796      1.5361     16.9047
C     -0.5638      8.9833      4.7183
C     -3.4971      8.9511      9.8214
C      8.0896     -2.0868     21.0236
H     -2.2695      2.8294      2.6931
C     -0.0925      7.8147      7.4157
C      0.9490      3.4529      5.4577
O      9.0331     -7.1028     17.3581
C     -1.4832      8.0715      5.3493
C      6.2714      0.9467     20.2593
C      5.3833      1.8610     19.5677
C      3.0988      1.0215     19.0507
H      5.4292      2.6404     22.2742
H      7.8502     -1.7700     23.1191
H      0.0265      9.4862      6.0281
H      3.7903    -11.5338     16.8490
H     -0.3259      7.2358      8.2800
C      2.0974      5.1096      7.2814
H     -0.6622     -8.9695     15.0843
C      4.1695      5.5778     18.1670
C      4.3462      2.4194     22.2359
H     -5.9661     11.8925      0.3252
H      1.0615      6.1177     -0.4780
C     -4.1356      7.9775     10.6170
H      3.2197      3.6682     23.9066
H     -5.8767      5.8285      9.0026
H     -1.3664      5.9660     12.1516
C      3.9044      3.2813     17.9844
C      4.4667     -3.0889     18.3679
C      6.0994     -1.0719     22.0217
C      7.2550     -3.3963     19.3120
C     -7.4037      4.4034      8.2471
C      5.8091      0.5602     21.7839
H     -0.7611      2.3889      8.3944
H      4.9913    -15.2658     13.1727
H      5.5690     -1.1794     22.9443
H     -3.0968      5.4020     13.7565
H      0.4414    -10.6337     15.8941
C      1.4916     10.2102     13.9226
H      2.7577      4.3065     22.6352
H     -2.4803      9.7813      2.9958
