282

C     -6.3359     -4.0895     13.5905
N     -2.0429     23.5227      1.2939
C      4.0518     14.4558      7.0929
C    -10.6742      2.3679     15.4809
H      1.2100     14.5954     10.3924
C     -5.2518      4.8605     15.5834
C     -5.2453      3.6202     16.4497
C      3.3738     17.2659      5.6769
C     -6.5938     -3.0075     11.2739
C      3.2705      7.4256      6.6186
C      6.3104     14.8455      4.5031
C      6.5594      9.7082      8.7975
C      0.8170     21.7305      0.9509
C     -3.7779     25.3137     -0.2654
C     -4.7937     26.7894      1.3757
N      0.4919     15.6800      5.9117
H     -6.9604     -4.0295     11.0552
C      1.0682      6.1777      0.6596
O    -13.8009      3.1071     13.9469
C      3.4097     17.1020      7.1790
H     -0.2089     20.2709     -2.2701
H     -5.3093     26.6131      2.4295
C      2.8320     19.3040      4.4670
C     -9.6505     -2.1673     16.4551
H     -2.0157      3.1491      6.3714
H      5.3068     19.8048     15.0569
C     -9.1040     -3.4942     16.2807
H      5.8348     20.3908      8.9191
H     -6.7973     -2.0437     10.8443
H      6.3750     16.2122      5.3591
H      3.5743     18.0584      8.4251
H     -0.7219      5.2692      6.4690
C      3.3112     15.7463      7.7991
H     -3.0674     24.2837     -2.2408
H      7.1659     14.4652      4.8117
C      7.8197     12.1815      8.8386
C     -3.5543     24.0350     -1.3097
C      6.6811     18.9717     10.1361
H      1.8072     12.5052      8.8758
H      1.5333     18.6976      9.1598
C     -6.4435      2.8922     16.2694
H      5.7366     16.1572      8.1219
H      4.5587     11.5931      9.0359
H      2.6735     20.0534      9.5199
C     -9.1279     -1.6706     17.6054
C     -2.9624     21.7116      4.7667
O      1.9004      8.7840      4.9710
C     -1.4935      8.3079      6.9302
C     -4.0953      8.0171     12.4080
C     -5.6152     -5.3004     13.2851
C      6.6276     19.8471     12.2902
H     -7.3835      4.1083     14.7836
H      6.5340     16.8634     12.2652
H     -7.8307     -2.4125     14.9394
H    -11.2877     -0.9020     19.0199
H      8.3660      7.2308      8.8153
C      8.1863     15.3936      8.9105
H    -12.3908      1.2247     14.9837
C      7.3683     19.0878     11.2351
C     -4.9969      6.0187     16.5393
H     -5.0982      7.9324     16.7172
C     -1.1425      6.7986      5.0252
H      3.4580      8.1940      8.6321
H     -9.6860     -1.7131     15.5512
H      3.8074     19.7228      2.7198
H      3.7806     16.9806     10.6467
H      3.2217      5.2300      0.5954
C     -3.2890     24.3040      7.3537
C      6.8653     17.6776      9.1408
C      3.0119      7.9110      5.0778
C     -3.6201     27.5732      0.9808
C      5.4701     17.3606     12.3855
C     -8.2238     -3.4132     15.0611
H     -3.9958     21.0848      5.1387
H     -3.9411     21.7411      3.0179
H      3.6785     13.7727     10.4071
H      7.1222      9.9652      9.6623
H      5.1367     14.0075      5.7380
C     -0.1877     16.2156      8.2820
H     -4.6119     -3.3525     14.8425
C      0.4782     21.4089     -0.6187
C      1.8735     15.3873      8.1403
H     -2.3516     19.3493     -1.9658
H     -2.0796     22.2826     -1.3236
C     -0.5431      6.2307      1.3854
H      5.7171     20.2857     12.1071
H     -1.3940      2.0174      4.9181
H      8.3619      7.4107      6.7934
C     -2.8688      7.2955     12.9141
O      2.6417     23.1576      0.9213
C      7.2598      8.7548      7.7599
C      3.8895      8.4187      7.5410
C      3.2784     14.2066      9.4242
C     -9.4760      0.6207     18.0076
H     -4.9888     -1.8832     13.5606
H      6.9892     13.3252      7.1231
H     -2.6192      5.5086      6.2423
H      4.7395     18.7543      9.7030
C     -8.7684      3.3615     16.4664
C     -2.1122     21.2944      0.5061
C     -1.8466     19.7665     -1.0926
H      8.8749     14.7318      9.5400
C      5.4930     15.6579      5.5178
H      1.8629     10.8492      9.0254
C      2.2899     11.7728      8.3129
C      4.7217     10.9910      7.3092
C     -1.8206      4.8512      3.4604
C      3.7915     10.0269      6.8025
C    -10.1364      3.5948     15.8888
C      5.4775     19.5567      9.7022
H      1.5213     11.9383      7.3678
H      2.6316     21.0356      0.3374
H      0.7076     24.8777      1.4177
H     -3.8704      6.1530     18.0595
H     -2.9214     25.2255      0.5124
H      2.9124      3.3111      0.5457
O      5.8252     19.7522      6.5483
C      0.7559      8.1655      4.2724
H      5.1866     11.6579      6.4302
C     -2.9380     21.5760      3.3210
C     -2.1313     20.3467      2.8068
H      8.5346     10.5449      8.4547
H     -4.1584      3.1314     16.8369
C     -2.1775      8.7626      7.9269
H      1.9993     15.9240      4.5847
H     -1.6803     24.2390     -1.2044
H      4.6589     18.9333     11.3648
C     -9.8945      0.9132     15.3402
C     -0.1425     21.3083      2.0177
O      4.9240     18.0088     11.1346
O      7.8144     16.1955     10.9007
C    -12.6759      3.3190     14.3933
C      0.1753      3.9295      4.0084
C      7.1015     11.0070      6.8383
H     -4.6465     23.3828     -1.1595
H      2.6441      9.9552      7.0206
H     -1.0423     22.0385      3.7468
H     -1.0310     21.6977     -1.8428
O     -0.2011     23.2137      5.3063
C      6.0489     10.8614      7.8864
C      0.7131      7.3400      6.6333
C      1.8178     20.5094      0.9684
C      0.6886      7.6468      3.0145
H      8.0568     12.9834      8.2814
C    -10.7099      0.0658     17.3512
C      0.6706     15.7837      7.4018
C     -2.7144     23.6967      6.2323
C     -1.8261      3.0676      5.1813
C     -8.4513     -0.3354     17.8558
C      2.9535     16.7152      9.8695
C    -11.9197      2.1183     14.7191
C     -1.2347     20.4572      1.5373
C      3.7686     11.8506      8.2306
N    -11.7517     -0.5098     18.2038
C     -9.9025      0.6196     13.9108
O      4.9827     19.0306     14.2250
C     -3.5151      6.2956     13.7699
H      5.0487     23.4958      5.5084
C     -2.4382      3.9904      2.5570
C     -2.1862      8.3073      9.5283
H      8.6860     16.0772      8.2461
H      2.2313     13.4591      6.9696
H      7.5418      8.9544      5.7899
C     -2.2785     22.6244      0.3190
H      5.0254     20.1735     10.3725
H      1.0542     20.3042      8.6927
H     -0.4346     22.3647      2.4276
H      1.3853     21.8582     -2.4949
H    -10.5934     -0.0466     13.5809
H     -0.1392     15.7880      9.2286
C      2.2002     20.4089      2.5102
H    -10.0282      1.5927     13.3910
C      1.5634     21.9670     -1.3236
C     -6.6662     -2.9534     12.6104
H      8.2501     18.5227     11.5780
C     -2.2839     23.3904     -1.0037
H    -12.3349     -1.1901     17.6910
C      4.2732     21.6125      4.4536
C     -5.3354      7.3329     15.8006
C     -4.7639     -3.0749     13.8330
C     -7.0589     -4.1191     14.8345
C      4.4614     19.1768      6.5609
C      2.2986      4.8913      2.6326
C      6.1764     18.5738     13.3602
C      5.3120     20.6702      4.1410
C     -4.9103      6.6016     14.2418
H      2.3515     22.5530     -0.7712
C      4.4723     18.0221      7.8495
O      0.6189     24.1771      0.8091
C      2.0597      4.9772      0.9529
H     -2.7853      9.9140      8.1454
C      6.1575     20.1606      5.2984
H      0.1972     14.7101      5.7291
H     -3.2717     27.7378      0.0283
H     -3.5472      3.9258      1.7576
C      7.2563     18.3507     14.3984
H      0.3306      2.8167      3.7850
O      7.3572     20.1501      5.0121
H     -5.1901      8.0509     11.0019
H     -2.5816     21.2189      1.4123
H      1.7199      3.2858     -0.8480
C     -0.5748     20.7775     -1.3555
H      6.1258     17.9173      7.3537
C      3.0280     19.1656      3.0916
C     -1.2138      4.3784      4.8302
C      0.3535      6.9113      5.2300
H      5.8335      9.1645      9.3106
H      2.2233     14.8646      6.1153
C      1.4486     18.7783      4.8273
H    -11.7035     -0.2196     15.4597
H     -2.0226      7.1770      9.7592
C      7.9162      7.4315      7.7544
C      4.2233     13.5730      8.2993
C      5.9607     20.6945      2.8160
C     -3.2639     23.1500      4.9560
C      0.0709      6.1954      2.6978
C     -1.5202      6.3725      3.5659
H     -2.6213     24.8719      8.1535
H      2.8447      4.5313     -0.6105
H     -8.9430     -3.5480     14.3465
H      4.4587     16.8026     12.8675
H     -2.7146      3.2348      4.5901
C      1.7088     14.5799      9.2923
H     -1.7123     23.9525      5.9666
C      0.8654      5.2011      3.4703
C     -7.5789      3.4666     15.7449
H      1.3355     17.5444      7.7029
H      4.9516      8.4142      7.1871
C      7.5386     16.4072      9.7052
H     -1.1248     24.0654      0.9876
H      7.2251     11.4910      5.9858
C      1.8891     19.5136      8.8820
C     -1.3487      5.5065      5.7353
C    -10.8390     -0.0169     16.0378
C      1.7720     17.6054      5.6454
C      2.0509     19.5622      7.1306
C      2.2700      3.7868     -0.0998
H     -0.7263      5.3334      0.8248
H     -8.7164      0.8059     15.8020
H     -3.8699      9.6112      9.1840
H     -9.1660      0.6005     13.3425
H      7.1518      6.5581      7.5583
H      7.2654     14.8631      8.3343
H     -3.0582     23.8528      4.2004
C     -4.9652     25.8939      0.1704
H      5.5834     14.3670      3.9133
C     -0.4741     22.0501      4.7650
C     -3.3575      8.5923      9.9502
H     -3.7878     -3.3316     13.0924
C      8.3250     11.3028      7.7268
H     -2.0092      2.8664      2.6921
H     -4.4263     23.1718      5.2159
C     -0.2991      7.5466      7.4774
C      1.0830     16.5066      5.0336
O     -4.0286      5.4721     17.5003
C     -1.7875     21.0369      5.4957
C      6.3632     13.8897      7.5973
C      5.3216     14.5632      6.5809
C      2.9528     13.9184      6.2730
H      5.0494     16.0462      9.5504
H      8.1559     11.6555      9.6668
C      1.9962     18.0469      7.0411
H    -12.5943      4.3814     14.5324
C      3.9578     18.5709      5.1908
C      3.9037     15.7804      9.1811
H     -6.2123     25.5688     -0.0860
H      0.2942      6.4484     -0.3491
C     -4.0571      8.3018     11.0121
H      2.2902     16.1573     10.5644
H      7.5285     18.3311      8.6992
H     -1.4106     18.7662     -1.1640
C      4.0564     15.9842      4.9401
C      4.3624     22.6592      5.5572
C      6.3165     12.0572      8.9139
C      7.2869      9.4773      6.6583
C      5.7180     17.4450      8.1840
C      5.5548     13.3945      8.5213
H     -1.0843     16.5387      7.8167
H     -6.3977     -1.7994     12.7435
H     -3.5874      5.5972     12.9741
C      1.5164     23.0615      1.2002
H      2.6029     17.4153      9.0647
