2

C     10.2511     10.1528      9.8662
C     10.4881      9.4751     10.9474
2

C     10.2215     10.1852      9.8801
C     10.3259      9.5242     10.9734
2

C     10.2209     10.2092      9.8419
C     10.3285      9.5995     10.9528
2

C      9.5425     10.1264     10.1496
C     10.6254      9.6769     10.6062
2

C      9.5785     10.1757     10.0261
C     10.4336      9.6070     10.6650
2

C      9.6513     10.1572      9.9632
C     10.3280      9.4789     10.7028
