7

O     11.1435      1.8045      2.3895
C     11.6026      2.7881      1.6460
C     12.9386      2.4873      1.0406
H      9.9337      1.5766      2.3225
H     14.0794      1.9649      1.2305
H     11.0231      3.6244      1.3564
H     13.2261      3.3323      0.3501
7

O     11.0489      1.8072      2.2999
C     11.5902      2.8422      1.5088
C     12.8809      2.5248      1.1171
H     10.1656      2.2439      2.4437
H     13.8158      2.2729      1.4467
H     11.5067      4.0344      1.3658
H     13.1520      3.2489      0.2207
7

O     11.1421      1.9882      2.2698
C     11.5857      2.7530      1.4343
C     12.8071      2.6131      0.9970
H     10.4498      2.1908      3.0087
H     13.2914      2.1259      1.8137
H     10.7071      3.8322      1.5840
H     13.1666      3.5961      0.4835
7

O     11.1489      1.8030      2.3269
C     11.6794      2.7768      1.4674
C     12.7744      2.6941      0.8729
H     10.5294      2.5290      2.8106
H     13.4378      2.2300      1.9196
H     11.2822      3.5004      0.6756
H     13.1491      3.7171      0.5504
7

O     11.2539      1.5350      2.1895
C     12.1570      2.1638      1.4096
C     13.4689      2.1209      1.5479
H     13.6524      1.1139      2.1955
H     11.7176      1.0056      2.9208
H     11.6562      2.8106      0.6807
H     14.3127      2.7620      0.8005
7

O     11.1747      1.5303      2.2585
C     12.1685      2.2250      1.5940
C     13.4613      1.9517      1.6496
H     13.8093      1.2100      2.3279
H     11.1680      0.8430      2.8499
H     11.5880      2.8505      1.2496
H     14.2067      2.2692      0.9558
7

O     11.0392      1.5465      2.2880
C     12.1735      2.1960      1.5808
C     13.4466      2.0252      1.8439
H     14.0638      1.2302      2.2056
H     11.1994      1.0573      2.9987
H     11.6482      3.1563      1.6545
H     14.2641      2.7713      1.4321
7

O     10.9984      1.4801      2.2002
C     12.2161      2.1561      1.5400
C     13.4058      2.0164      1.8870
H     14.0544      1.2982      2.1925
H     10.9243      0.6657      2.7887
H     11.6978      3.0291      1.3822
H     14.1290      2.7821      1.4474
7

O     10.9817      1.5861      2.2046
C     12.1022      2.2484      1.4621
C     13.4222      2.0666      1.9963
H     14.0699      1.0247      2.1144
H     11.2804      0.8544      2.5777
H     11.7092      3.2592      1.4026
H     14.3985      2.6391      1.3668
7

O     10.9490      1.6629      2.1991
C     12.0749      2.1704      1.5963
C     13.3092      2.0507      1.9697
H     13.3523      0.8795      2.4981
H     10.8450      0.7724      2.7436
H     11.7440      3.1137      1.3660
H     14.0107      2.7579      1.5694
7

O     11.0525      1.7774      2.3944
C     12.0586      2.2324      1.6515
C     13.3482      1.8837      1.9824
H     13.6576      1.0128      2.3629
H     10.6161      1.0331      2.6806
H     11.3922      3.1724      1.2305
H     13.8086      2.7924      1.8491
7

O     11.0411      1.7943      2.4321
C     12.1022      2.3024      1.7410
C     13.3597      1.8884      1.8250
H     13.4976      0.8010      2.6597
H     10.8988      0.9688      3.0179
H     11.6979      2.9575      1.1265
H     14.2369      2.5324      1.3852
7

O     11.0599      1.8233      2.4178
C     12.0636      2.3462      1.8289
C     13.3299      1.9081      1.7805
H     13.3147      1.0717      2.3019
H     10.9216      1.0465      2.8248
H     11.7920      3.1170      1.0895
H     14.1349      2.4487      1.1466
7

O     11.0244      1.8707      2.3300
C     12.1353      2.3868      1.8103
C     13.3745      1.9874      1.7384
H     13.5854      1.5367      2.7116
H     11.3913      1.0784      2.4809
H     11.5890      3.1670      1.5164
H     13.9788      2.6848      1.3234
7

O     10.9210      1.8320      2.2728
C     12.1716      2.4927      1.8520
C     13.4222      1.9427      1.7799
H     13.5115      1.1446      2.3773
H     11.2936      1.2829      2.8649
H     11.6298      3.5826      1.9081
H     14.0832      2.5432      1.2082
7

O     11.0446      1.7197      2.0967
C     12.1175      2.5206      1.8738
C     13.3857      1.8843      1.5333
H     14.1018      1.2811      2.1186
H     11.1137      0.7015      2.2873
H     11.6755      3.5618      1.7447
H     14.1263      2.5329      1.0072
7

O     11.1222      1.6237      1.9826
C     12.2398      2.5025      1.8790
C     13.3613      1.9196      1.4778
H     14.2582      1.5477      1.8457
H     10.9544      0.7462      1.8036
H     12.1347      3.4047      1.4690
H     13.9389      2.8263      1.1818
7

O     11.1580      1.6880      1.9627
C     12.2229      2.3044      1.8139
C     13.5086      1.9907      1.4244
H     14.1312      1.5354      2.1928
H     11.0358      0.4793      1.9714
H     11.9444      3.3786      1.6031
H     13.6379      2.9840      1.4090
7

O     11.1890      1.5600      1.9151
C     12.2764      2.1914      1.7452
C     13.6248      2.1871      1.3970
H     13.7956      1.2600      2.0256
H     11.8282      0.6834      2.1416
H     11.8687      3.3155      1.8142
H     14.1405      3.0634      1.8619
7

O     11.1896      1.5520      1.9651
C     12.2942      2.3104      1.8765
C     13.5421      2.0733      1.5053
H     13.9613      1.2111      2.0141
H     11.1034      0.7795      2.8941
H     12.3425      3.5350      1.6556
H     14.1165      3.0595      1.4847
7

O     11.1765      1.6211      1.9180
C     12.2229      2.3503      1.8432
C     13.4933      2.0817      1.5893
H     13.8528      1.3611      2.2921
H     10.8566      0.8825      2.7721
H     12.1205      3.5444      1.6189
H     13.9326      2.7649      0.8652
7

O     11.1910      1.5770      2.0505
C     12.1565      2.4176      1.8931
C     13.4994      2.0554      1.6501
H     13.9026      1.6273      2.4456
H     11.0212      0.6489      2.0156
H     12.2121      3.6235      1.7267
H     14.0702      2.9426      1.2787
7

O     11.3527      1.5267      2.2000
C     12.3097      2.4504      1.8162
C     13.5746      2.2824      1.5722
H     14.0529      1.3773      1.9702
H     11.2767      0.5565      2.2766
H     11.6060      3.3630      1.6395
H     13.9349      3.2245      1.7165
7

O     11.3885      1.5003      2.1775
C     12.2147      2.3457      1.6579
C     13.5286      2.2761      1.6380
H     14.2710      1.3052      1.7740
H     11.4236      0.4785      2.1864
H     11.6170      3.4107      1.6084
H     13.8333      3.1868      1.4861
7

O     11.2418      1.4032      2.2184
C     12.1622      2.4341      1.7874
C     13.6286      2.2982      1.6795
H     13.9763      1.3617      1.4747
H     11.4107      0.4449      1.8846
H     11.7352      3.4537      1.8887
H     13.7741      3.0718      1.3127
7

O     11.2110      1.4812      2.0299
C     12.2053      2.4406      1.7804
C     13.4357      2.1002      1.5875
H     14.1427      1.2265      1.5099
H     11.9850      0.6278      2.0583
H     11.7216      3.4256      1.8008
H     14.2674      2.8982      1.1170
7

O     11.5529      1.0136      2.0814
C     12.1149      2.1836      1.7330
C     13.2454      1.9753      1.0053
H     14.3418      1.7564      0.8173
H     11.6629      0.1594      2.6348
H     11.5665      2.9627      1.2317
H     13.1507      2.9332      0.6557
7

O     11.5031      1.0911      2.0597
C     12.0680      2.2104      1.7214
C     13.1925      2.0404      1.0214
H     14.0959      1.6895      0.7009
H     11.6920      0.4052      2.6185
H     11.7478      3.1282      1.3022
H     13.0898      2.9947      0.5140
7

O     11.3981      1.0538      2.0829
C     11.9639      2.1425      1.7651
C     13.1107      2.1036      1.0309
H     14.1064      1.8700      0.7913
H     12.2201      0.7731      2.7919
H     11.7065      3.2342      1.5314
H     13.2511      2.9792      0.4371
7

O     11.3407      1.0635      2.1772
C     12.0729      2.1577      1.6427
C     13.3014      2.0613      1.0060
H     14.3408      1.7970      1.5523
H     12.2370      0.7966      2.9103
H     11.2163      2.9738      1.5933
H     13.2389      3.1228      0.8371
7

O     11.3004      1.1712      2.1212
C     12.1244      2.0219      1.4746
C     13.4469      2.1275      1.0170
H     13.7270      1.4173      1.7136
H     11.7229      0.1236      2.2432
H     11.9865      3.0564      1.6505
H     13.5654      3.0911      1.3926
7

O     11.2626      1.2896      2.1154
C     12.0904      2.0311      1.3702
C     13.3496      2.1292      1.1154
H     13.8452      1.2695      1.2519
H     11.3493      0.2645      1.6860
H     11.6954      3.2352      1.4783
H     14.0523      2.9861      1.4720
7

O     11.1076      1.3656      2.1948
C     11.9011      2.1790      1.4307
C     13.2153      2.1923      1.0791
H     13.8540      1.5857      0.8678
H     11.6737      0.2837      2.2339
H     11.6693      3.2167      1.3610
H     13.4426      3.3412      1.0401
7

O     11.1833      1.3076      2.1927
C     11.9161      2.2748      1.4994
C     13.1029      2.2115      0.9251
H     13.9126      1.5821      0.8345
H     11.6684      0.4434      2.3048
H     11.4468      3.2375      1.4093
H     13.3886      3.1638      1.0013
7

O     11.2980      1.4252      2.2821
C     11.9022      2.3836      1.7730
C     12.8728      2.2296      0.6874
H     13.4321      1.5760      1.2073
H     12.0734      0.8562      2.5223
H     11.4920      3.3950      1.8511
H     13.2784      3.0991      0.9272
7

O     11.3144      1.4204      2.3450
C     11.9391      2.4470      1.7556
C     12.6930      2.2478      0.6551
H     13.4303      1.7855      1.3540
H     12.1685      1.1387      2.8526
H     11.8017      3.6239      2.0113
H     13.1150      3.2029      0.5434
7

O     11.3093      1.4050      2.3051
C     11.9058      2.4625      1.6924
C     12.8036      2.2249      0.7289
H     13.7587      1.8162      1.0491
H     12.1346      1.1438      2.7708
H     11.2571      3.4034      1.5299
H     12.8123      3.2589      0.5631
7

O     11.2260      1.4876      2.2969
C     11.8976      2.5485      1.5152
C     12.8549      2.2120      0.6748
H     13.6251      1.5180      0.8609
H     12.0113      1.4410      2.9044
H     11.4857      3.6353      1.3564
H     13.0690      3.2647      0.4493
7

O     11.2145      1.7620      2.2391
C     11.8154      2.5235      1.5232
C     12.9161      2.2587      0.6670
H     13.7282      1.9306      1.1295
H     11.5842      1.2418      2.9730
H     11.5497      3.6921      1.4452
H     13.0523      3.1224      0.0301
7

O     11.1422      1.8647      2.2503
C     11.8772      2.5359      1.5219
C     12.9500      2.2652      0.6866
H     13.9105      2.0230      0.9321
H     11.7544      1.1035      2.6214
H     11.3693      3.7990      1.3451
H     12.8006      3.1708      0.0190
7

O     11.1540      1.7325      2.1303
C     11.8672      2.4763      1.4742
C     12.9870      2.3538      0.6570
H     13.8660      2.1117      1.1018
H     11.6524      1.0359      2.4710
H     11.2894      3.4920      1.4891
H     13.2592      3.1393      0.0291
7

O     11.1555      1.6244      2.1205
C     11.9693      2.6090      1.4895
C     13.0961      2.3838      0.7205
H     14.0949      1.6878      0.7963
H     11.3617      0.8363      2.7300
H     11.5481      3.6306      1.2446
H     13.1110      2.9525     -0.4299
7

O     11.2422      1.5649      2.0210
C     12.0546      2.6188      1.4691
C     13.2348      2.4402      0.5470
H     13.9446      1.9909      1.2169
H     11.4162      1.0325      2.7847
H     11.3400      3.3949      1.2596
H     13.5382      3.0307     -0.3228
