8

C      9.5431      0.0608      0.8658
H     10.3207     -0.3495      1.6341
C      9.2396      1.4594      1.0055
H      9.2620     -1.9326     -0.1911
H      9.9580      1.9346      1.6886
H      9.4232      2.0395      0.0968
C      8.9881     -0.7253     -0.2071
H      8.4489     -0.0424     -0.6974
8

C      9.6496      0.1223      0.7610
H      9.8658     -0.5076      1.7252
C      9.3480      1.4757      1.1183
H      9.4476     -1.7473     -0.3864
H      9.3557      1.8519      2.0888
H      9.8498      2.0584      0.4645
C      9.0146     -0.6221     -0.1785
H      8.6674     -0.5137     -1.2433
8

C      9.6657      0.1727      0.7677
H      9.8893     -0.5565      1.4981
C      9.4191      1.3656      1.1211
H      9.4071     -1.7029     -0.2257
H      9.3290      1.8107      1.9774
H      9.7116      2.4755      0.7635
C      9.0712     -0.6592     -0.1712
H      8.9895     -0.3079     -1.1951
8

C      9.6485      0.0831      0.9180
H     10.5846     -0.1276      1.2368
C      9.0730      1.3915      0.8034
H      9.4832     -1.7075     -0.0116
H      9.6368      2.1133      1.3796
H      9.2389      1.5706     -0.3234
C      9.1144     -0.6902     -0.1559
H      8.3092     -0.3809     -0.8733
8

C      9.4641      0.0244      0.9244
H     10.5507     -0.1750      1.3839
C      9.1698      1.3340      0.7840
H      9.2229     -1.8428     -0.1113
H      9.4313      2.1269      1.4201
H      8.7783      1.4750     -0.2738
C      9.2224     -0.7491     -0.1768
H      7.9638     -0.5841     -0.4696
8

C      9.3673      0.1321      0.9392
H     10.3243     -0.0384      1.3707
C      9.1699      1.4366      0.6972
H      9.5199     -1.6645     -0.0601
H      9.3319      2.3154      1.1879
H      8.6287      2.0500      0.0069
C      9.1065     -0.7418     -0.1408
H      7.9241     -0.7302     -0.5428
8

C      9.4007      0.1282      0.8259
H     10.4212     -0.0980      1.1498
C      9.2300      1.4643      0.8573
H      9.4053     -1.8336     -0.0093
H      9.5192      2.3434      1.4367
H      8.9655      1.7654     -0.1568
C      9.0290     -0.7774     -0.1114
H      7.9663     -0.5870     -0.5685
8

C      9.3484      0.1738      0.7452
H     10.1778     -0.3985      0.9360
C      9.1515      1.4820      0.7843
H      9.7866     -1.6095     -0.1062
H     10.2521      1.8592      1.0453
H      8.4528      2.0277     -0.0200
C      9.0140     -0.9023     -0.1034
H      8.1525     -0.8406     -0.7625
8

C      9.4845      0.1721      0.6312
H     10.4932     -0.0995      0.9274
C      9.1782      1.5697      0.7843
H      9.7044     -1.6728     -0.3216
H      9.9770      2.3013      0.9848
H      8.5316      1.8518      0.0202
C      8.9289     -0.7848      0.0348
H      8.0039     -0.6536     -0.6611
8

C      9.6118      0.1965      0.7254
H     10.7237     -0.2046      1.0088
C      9.1739      1.5597      0.8458
H      9.3774     -1.6212      0.0333
H      9.9214      2.2740      1.0437
H      8.5395      1.8084     -0.0091
C      8.8846     -0.6887     -0.0554
H      7.9709     -0.4235     -0.5754
8

C      9.6354      0.2364      0.7118
H     10.6526      0.0023      0.7967
C      9.1953      1.4614      0.9206
H      9.1336     -1.7434      0.0786
H      9.8622      2.2546      1.2829
H      8.7529      1.4654      0.0302
C      8.9628     -0.6826      0.0159
H      7.9861     -0.3491     -0.6643
8

C      9.7040      0.1996      0.7201
H     10.7641      0.0024      0.6354
C      9.2552      1.5503      0.9106
H      9.0615     -1.7742     -0.0154
H      9.8616      2.3418      1.0837
H      8.6531      1.5439      0.0640
C      8.9917     -0.7591      0.1325
H      7.9212     -0.6951      0.3004
8

C      9.7453      0.1422      0.6525
H     10.7886      0.0703      0.3814
C      9.3397      1.3653      0.7837
H      9.1958     -1.6654     -0.4774
H      9.8283      2.3582      0.9810
H      8.6670      1.4543     -0.0972
C      8.9581     -0.8662      0.2459
H      8.0402     -0.4418      0.5485
8

C      9.7812      0.1216      0.8648
H     10.7900     -0.0845      0.7683
C      9.1691      1.3027      0.7142
H      8.9341     -1.3236     -0.7681
H      9.7614      2.2680      0.8727
H      8.2634      1.0039      0.1387
C      9.0186     -0.9782      0.2573
H      8.0606     -0.7344      0.7523
8

C      9.8619      0.2086      0.9401
H     10.8356      0.1651      0.7441
C      9.0831      1.2224      0.6277
H      8.9950     -0.9357     -0.7976
H      9.4377      2.2634      0.7759
H      8.1965      0.6717      0.1269
C      9.0250     -0.8615      0.2618
H      8.0179     -0.8034      0.5774
8

C      9.4291      0.1433      0.1344
C      9.3813      1.0919      1.0009
H      8.7087     -1.6057     -0.9609
H      8.8730     -1.9064      0.6718
H      9.6846      2.0985      0.8941
H      8.2981      1.1219      1.4100
C      8.6201     -1.0074     -0.0596
H      7.7116     -0.3887     -0.1762
8

C      9.4351      0.3131     -0.0177
C      9.3854      1.2351      0.9813
H      8.6681     -1.0842     -0.9768
H      8.9235     -1.2804      1.0198
H      9.3737      2.1412      0.4567
H      8.6412      1.1466      1.6210
C      8.4600     -0.7606      0.0097
H      7.4159     -0.8466      0.2729
8

C      9.4094      0.3197     -0.0316
C      9.4137      1.2581      0.9549
H      8.5947     -1.0921     -1.1208
H      8.5411     -1.6463      0.6464
H      9.4826      2.1466      0.3824
H      8.4531      1.2367      1.4677
C      8.5565     -0.7403     -0.0802
H      7.4652     -0.6842      0.1481
8

C      9.6832      0.7808      0.6378
H     10.7506      0.7532      0.9257
C      9.0511      1.8385      0.6101
H      8.2168      0.1927     -0.6924
H      9.5928      2.8657      0.4247
H      8.0937      1.4678      0.8421
C      8.8543     -0.3499      0.2171
H      8.0424     -0.6324      0.7723
8

C      9.7621      0.7536      0.6596
H     10.6262      0.2883      0.8476
C      8.9804      1.8033      0.5083
H      8.1808     -0.1408     -0.5551
H      9.8927      2.6809      0.3677
H      8.1064      1.4402      1.0054
C      8.9548     -0.3630      0.3293
H      8.3520     -0.9498      0.9256
8

C      9.8433      0.7213      0.6591
H     10.8262      0.5047      0.9280
C      9.0579      1.7681      0.4446
H      8.2987     -0.6057     -0.3839
H      9.7823      2.5180      0.4580
H      8.1919      1.1234      0.5516
C      9.0820     -0.3896      0.2450
H      8.6393     -0.9409      0.9279
8

C      9.9002      0.7128      0.7432
H     10.9020      0.9707      1.0763
C      9.2602      1.7966      0.3887
H      8.4149     -0.1193     -0.4377
H      9.4352      2.9787      0.4068
H      8.4453      1.8759     -0.2906
C      9.3126     -0.5370      0.0564
H      9.2252     -1.2202      0.6989
8

C      9.8151      0.5497      0.6636
C      9.3489      1.8826      0.3562
H      8.2499     -0.3462     -0.2010
H      9.7471     -0.9226     -0.8021
H      9.5042      2.7625      0.8731
H      8.2684      1.7363     -0.0084
C      9.3130     -0.5370      0.1216
H      9.0269     -1.5718      0.4611
8

C      9.3418      0.8322      0.6986
H     10.2054      0.5568      1.2445
C      8.9293      1.9668      0.4273
H      7.9848     -0.3335     -0.6519
H      9.8933     -0.4161     -0.2970
H      9.5182      2.9958      0.4560
C      8.8167     -0.4265     -0.0047
H      9.0166     -1.0800      0.8686
8

C      9.3401      0.8439      0.7084
H     10.3290      0.7420      1.2771
C      8.7312      1.9465      0.5132
H      7.8106     -0.7765     -0.2912
H      9.8640     -0.9284     -0.0826
H      9.6445      2.7445      0.4240
C      8.8696     -0.4106      0.0553
H      8.4194     -0.9612      1.0412
8

C      9.3306      0.8605      0.6890
H     10.3306      1.1796      0.9207
C      8.6816      1.9666      0.5253
H      7.9027     -0.3255     -0.5123
H      9.6302     -1.1218     -0.4193
H      9.3195      2.7458      0.5329
C      8.9414     -0.4605      0.1778
H      8.6019     -1.1806      1.0350
8

C      9.5633      0.5659      0.3602
H     10.4088      0.5441      1.0170
C      9.3159      1.9599      0.2487
H      8.0331     -0.2927     -0.9204
H      9.3526     -1.1617     -0.4619
H      9.7579      2.2661      1.2539
H      8.4904      2.8055     -0.1000
C      8.8567     -0.4544     -0.1610
8

C      9.5666      0.6610      0.4044
C      9.3268      2.0260      0.3192
H      7.8896     -0.0244     -0.5828
H      9.4489     -1.1962     -0.3921
H     10.1536      2.2760      0.7432
H      8.4235      2.5752      0.0223
C      8.7677     -0.3875     -0.0185
H      8.5118     -1.0463      0.6376
8

C      9.7136      0.4647      0.4338
C      9.4837      1.8442      0.5197
H      7.5083     -0.4229     -0.1712
H      9.4118     -1.1513     -0.6845
H     10.4087      2.4186      0.2822
H      8.3739      2.1907      0.6315
C      8.7651     -0.6061      0.1164
H      8.6954     -1.2548      1.0566
8

C      9.6144      0.6583      0.1742
C      9.2941      1.8578      0.4081
H      7.7710     -0.0969      0.2549
H      8.8960     -1.3637     -0.4236
H     10.1727      2.4905      0.1947
H      8.6907      2.1832      1.3858
C      8.8676     -0.5501      0.3875
H      8.9733     -1.2081      1.2755
8

C      9.6186      0.7352     -0.0739
C      9.1287      2.0045      0.3937
H      8.1791     -0.0940     -0.1425
H      8.8772     -1.4723     -0.3419
H     10.0074      2.6247      0.5760
H      8.4303      2.1815      1.2768
C      8.7654     -0.6764      0.4330
H      8.8459     -1.0111      1.4707
8

C      9.6053      0.5713      0.5618
C      9.2814      1.7970      0.6926
H      7.8512     -0.2707     -0.0467
H      9.1357     -1.3151     -0.0807
H      9.8924      2.6363      0.5125
H      8.4223      1.9423      0.9290
C      8.7341     -0.5779      0.6594
H      8.2191     -1.1418      1.6351
8

C      9.5894      0.6147      0.4827
C      9.1128      1.9396      0.6039
H      7.6600     -0.2887     -0.1540
H      9.3036     -1.1894     -0.4143
H      9.7424      2.7818      0.4824
H      8.2455      2.2339      0.6989
C      8.7034     -0.5444      0.2801
H      8.6338     -1.1854      1.1753
8

C      9.4949      0.7863      0.4164
C      9.0378      2.0115      0.5186
H      7.6092     -0.4257     -0.2104
H      9.5438     -1.2349     -0.3669
H      9.6350      2.5839      1.1465
H      8.1374      1.9021      0.4177
C      8.7574     -0.4983     -0.0267
H      8.6003     -0.7623      0.9339
8

C      9.6510      0.7485      0.2814
C      8.9652      1.9827      0.4763
H      7.8785     -0.6636     -0.3008
H      9.1215     -1.1451     -0.5246
H      9.6574      2.7474      0.8033
H      8.1799      2.4483      0.7889
C      8.9245     -0.3801      0.0737
H      8.6272     -0.9353      1.0864
8

C      9.5799      0.7747      0.2701
H     10.5371      0.2624      0.3627
C      8.8007      1.7605      0.2720
H      7.9840     -0.4400     -0.4907
H      9.9418     -1.0729     -0.2269
H      9.4998      2.7995      0.3912
C      8.9543     -0.4506      0.0344
H      8.9231     -0.7602      1.3421
8

C      9.5376      0.7184      0.2171
H     10.5465      1.0810      0.7124
C      8.6314      1.8478     -0.0205
H      8.4223     -0.5437     -0.7466
H      9.8639     -1.5312     -0.2677
H      8.8335      2.7778      0.6026
C      9.0666     -0.7810      0.0878
H      8.3394     -1.0209      1.1040
8

C      9.3572      0.7422      0.2718
H     10.2116      0.6667      1.2774
C      8.7592      1.9045     -0.0572
H      8.2536     -0.8621     -0.6473
H     10.0073     -1.4344     -0.1206
H      8.9569      2.5494      0.7921
C      9.0302     -0.8267      0.0754
H      8.6638     -0.6586      1.0349
8

C      9.4268      0.6286      0.5239
H     10.5192      0.3837      1.0754
C      8.8007      1.5731     -0.1221
H      8.8499     -0.8633     -0.9997
H     10.1087     -0.8247      0.1349
H      8.7635      2.8214      0.0683
C      9.0224     -0.6472      0.0431
H      8.4110     -1.4075      0.7964
8

C      9.4462      0.7269      0.6146
H      9.9776      1.0801     -0.5245
C      8.9023      2.0290      0.5205
H      8.1870     -0.1764     -1.0389
H      9.7305     -1.0811     -0.4482
H      9.3012      3.1687      0.6729
C      8.8011     -0.5137     -0.0979
H      8.4511     -1.4674      0.2503
8

C      9.3597      0.7917      0.4869
H     10.0637      1.1979     -0.3008
C      8.8136      2.0763      0.5511
H      8.5595     -0.0566     -0.8521
H      9.7228     -1.2729     -0.2176
H      9.4693      3.0652      0.6657
C      8.9375     -0.5749     -0.1111
H      8.2129     -1.1730      0.3737
8

C      9.5935      0.5738      0.1501
H     10.4935     -0.0759     -0.1795
C      9.2243      1.8709      0.7677
H      8.0133     -0.5882     -0.6575
H      9.1456     -1.3088     -0.2467
H      9.4813      2.8225      0.3186
C      8.7077     -0.5164      0.2838
H      7.7735     -0.7715      1.1645
8

C      9.4943      0.5709      0.2323
H     10.2536      0.2814     -0.5132
C      9.2409      1.8039      0.6393
H      8.1428     -0.4144     -0.6245
H      8.8204     -1.4411      0.1354
H      9.8598      2.8322      0.6019
C      8.5008     -0.5662      0.4964
H      7.9425     -0.7972      1.6852
8

C      9.4525      0.4933      0.3137
H     10.4927      0.3948      0.1706
C      9.0552      1.8398      0.2386
H      8.6250     -0.6145     -1.1803
H      8.1723      2.3323      0.7102
H      9.7668      2.5704      0.6722
C      8.7224     -0.7066      0.0204
H      7.6289     -0.5467      0.3650
8

C      9.5149      0.5170      0.2799
H     10.5642      0.2865      0.5551
C      9.1216      1.9099      0.4126
H      8.5784     -1.0513     -1.0505
H      7.8926      2.1316      0.5642
H     10.0388      2.4303      0.4131
C      8.6992     -0.7449     -0.0575
H      8.0352     -1.1332      0.6763
8

C      9.4743      0.5219      0.2144
H     10.3321     -0.1360      0.3938
C      9.0455      1.7746      0.3451
H      7.9086     -1.0657     -0.7240
H      8.0971      2.2524      0.1208
H     10.0283      2.2248      0.1271
C      8.6271     -0.7820     -0.0150
H      7.8010     -0.6743      0.8527
8

C      9.4152      0.5376      0.1377
H     10.6686      0.2345      0.5222
C      8.9621      1.7591      0.3096
H      8.5706     -1.3430     -1.0992
H      8.0215      2.0332     -0.0749
H      9.6404      2.3550      0.8356
C      8.5679     -0.6622     -0.1326
H      7.6673     -0.8071      0.3660
8

C      9.6105      0.4017      0.2721
H     10.5086     -0.0426      0.6311
C      9.0749      1.7094      0.3276
H      8.9072     -1.2231     -0.9688
H      8.4335      1.5369     -0.4738
H      9.8007      2.8094      0.2175
C      8.5696     -0.7632     -0.0623
H      7.6884     -1.2669      0.3510
8

C      9.5253      0.2185      0.2988
H     10.4484      0.1847      0.6606
C      9.2242      1.6397      0.3294
H      9.0438     -1.5549     -0.7629
H      8.3631      1.3185     -0.2043
H      9.6836      2.3405     -0.3282
C      8.5617     -0.6624     -0.1826
H      7.8094     -0.9523      0.3014
8

C      9.4569      0.2476      0.5250
H     10.5683     -0.1606      0.2270
C      9.1183      1.4520      0.2757
H      9.1100     -1.1700     -1.0082
H      8.2140      1.7893     -0.2057
H     10.2399      1.4512      0.1216
C      8.6609     -0.7828     -0.0563
H      7.8879     -1.3508      0.4745
8

C      9.5876      0.1734      0.4963
H     10.7242     -0.1310     -0.1800
C      9.1960      1.4488      0.2625
H      8.8187     -0.8671     -1.1359
H      8.3013      1.9406     -0.0861
H     10.1137      2.1026      0.2485
C      8.7017     -0.8605      0.1128
H      7.6821     -1.1494      0.3455
8

C      9.6291      0.1992      0.5021
H     10.6697      0.1630     -0.0166
C      9.2295      1.4544      0.2515
H      8.7650     -1.1179     -1.0360
H      8.0956      1.8765     -0.2984
H     10.2378      2.0604      0.2500
C      8.7541     -0.8458      0.1297
H      7.6736     -0.6867      0.4213
8

C      9.6397      0.2294      0.5733
H     10.6148      0.1220      0.4276
C      9.2587      1.4128      0.3094
H      9.0169     -1.3312     -0.9278
H      8.0001      1.5626     -0.1204
H      9.9401      2.2750      0.3832
C      8.7804     -0.9591      0.0840
H      7.8105     -0.7433      0.6521
8

C      9.5167      0.1519      0.6463
H     10.6989      0.0312      0.3790
C      9.2355      1.5097      0.4676
H      8.6236     -1.0722     -0.9763
H      8.2269      1.2272     -0.3027
H     10.1699      2.2444      0.3339
C      8.8693     -1.0144      0.0860
H      7.9369     -0.8699      0.6465
8

C      9.5097      0.1902      0.6821
H     10.6687      0.0163      0.7959
C      9.2432      1.4745      0.4383
H      9.2615     -1.2968     -0.9709
H      8.8348      1.6366     -0.7428
H      9.7143      2.4149      0.6956
C      8.8398     -0.9435     -0.0028
H      7.8050     -1.4808      0.1919
8

C      9.6182      0.1682      0.8212
H     10.5030      0.0237      1.5601
C      9.3641      1.4721      0.4327
H      9.3404     -0.9514     -1.0754
H      9.0928      2.0458     -0.2932
H     10.1921      2.2175      0.5365
C      8.9385     -1.1053     -0.0222
H      7.9381     -1.0744      0.1672
8

C      9.6042      0.2012      0.6671
H     10.3146     -0.4167      1.2245
C      9.4854      1.5157      0.4290
H      8.9982     -1.4492     -1.1704
H      9.0458      2.2092     -0.3617
H     10.0492      2.2806      0.6503
C      9.0184     -1.1222     -0.0477
H      7.8831     -1.2627      0.0845
8

C      9.8574      0.0254      0.3488
H     10.4396      0.3344      1.2730
C      9.5840      1.3963      0.2210
H      9.6374     -1.3257     -0.8169
H      8.7590      1.8259     -0.3636
H      9.9174      1.6468      1.1437
C      9.1406     -1.0885      0.0239
H      8.2475     -1.5721      0.2541
8

C      9.8520     -0.0194      0.3468
H     10.5255      0.0033      1.2524
C      9.3974      1.3115      0.2925
H      9.7954     -1.5927     -0.7760
H      8.8042      1.6727     -0.5500
H      9.9918      2.0295      1.0291
C      9.1149     -1.2736     -0.0080
H      8.8618     -1.9217      0.9460
8

C      9.8881      0.0447      0.4391
H     10.3998     -0.0594      1.3825
C      9.5038      1.3209      0.3312
H      9.4975     -2.1544     -0.7344
H      8.7357      2.0858     -0.3914
H      9.9566      2.0471      1.1205
C      9.0478     -1.2228     -0.0731
H      8.5015     -1.3877      0.7770
8

C      9.9077      0.1360      0.5567
H     10.0645     -0.2071      1.5567
C      9.5808      1.4673      0.5293
H      9.4961     -1.9696     -0.9109
H      9.0875      2.0942     -0.3536
H      9.8242      1.5259      1.5413
C      9.0762     -1.2566     -0.1054
H      8.1766     -1.3848      0.4203
8

C      9.9578      0.1289      0.5207
H     10.5078     -0.2422      1.4316
C      9.5718      1.4444      0.5994
H      9.5700     -1.6917     -0.9304
H      9.0667      2.1748     -0.1381
H      9.5100      1.2238      1.8971
C      9.0385     -1.1940      0.0019
H      8.1057     -1.5089      0.2596
8

C      9.8890     -0.0162      0.4884
H     11.2470      0.0920      0.7010
C      9.5941      1.3384      0.6078
H      9.7965     -1.6489     -0.6588
H      8.7558      2.1794      0.1535
H      9.4883      1.2537      1.8622
C      9.1468     -1.2852     -0.0698
H      8.1903     -1.8088      0.5785
8

C      9.8386      0.0204      0.6204
H     10.8720      0.1103      0.5737
C      9.1131      1.2057      0.7929
H      9.5185     -1.6418     -0.8495
H      8.1067      0.9062      0.5069
H      9.4303      2.1868      1.1466
C      9.2982     -1.0696      0.0248
H      8.0282     -1.1422      0.1931
8

C      9.8728      0.0710      0.5803
H     10.9092      0.0281      0.4557
C      9.0649      1.1505      0.7283
H      9.0412     -1.5725     -0.7704
H      7.9039      1.0224      0.9226
H      9.5319      2.1252      1.0635
C      9.1433     -0.9261      0.0370
H      8.3605     -1.0264      0.6470
8

C      9.9067      0.0812      0.5283
H     10.9468     -0.0228      0.4014
C      9.1286      1.2628      0.6482
H      8.9307     -1.3222     -0.9834
H      8.1366      1.0468      1.0609
H      9.4718      1.9481      1.4907
C      9.0648     -0.9713      0.0213
H      8.0802     -0.5168      0.4912
8

C      9.9823      0.1039      0.5525
H     10.8083     -0.3565      0.3955
C      9.2609      1.2468      0.6949
H      9.0224     -1.0921     -0.9717
H      8.1431      1.0080      1.2913
H      9.7694      2.0502      1.3302
C      9.0460     -1.0468      0.0354
H      8.0147     -0.8733      0.4262
8

C      9.9839     -0.1114      0.5269
H     11.0120      0.0167      0.2204
C      9.2283      1.1726      0.7481
H      9.2948     -1.1729     -1.2484
H      8.4503      0.9414      1.2563
H      9.4198      2.1221      1.1612
C      9.0136     -1.0411      0.0477
H      8.1123     -0.5726     -0.1794
8

C     10.0003      0.1221      0.5441
H     10.9306      0.0348      0.0622
C      9.2372      1.1473      0.7020
H      9.3453     -1.3344     -0.9979
H      8.2799      1.0204      0.4561
H      9.4703      1.9217      1.2862
C      9.0361     -0.9502      0.0361
H      8.0819     -0.7244      0.2370
8

C      9.9728      0.0372      0.4666
H     11.0815     -0.2058      0.2452
C      9.2509      1.2329      0.9062
H      9.0300     -0.9356     -1.0380
H      8.3566      1.1756      0.5069
H      9.2642      2.2312      1.3951
C      9.0077     -0.8988      0.1012
H      7.9745     -0.7580      0.1155
8

C     10.0207      0.0645      0.4403
H     10.9010     -0.4193      0.3010
C      9.2402      1.1533      0.9005
H      9.2431     -0.9470     -1.1186
H      8.0396      0.8976      0.7827
H      9.3705      2.1463      1.3931
C      8.9133     -0.8829      0.0965
H      7.9345     -0.7310      0.1358
8

C      9.9047      0.0526      0.4187
H     11.0776     -0.0946      0.1431
C      9.1696      1.2213      0.9526
H      9.2447     -1.2944     -0.8976
H      8.0641      1.1870      0.9301
H      9.4927      2.2866      1.3163
C      9.0209     -0.8679      0.0317
H      7.8960     -0.6271      0.2070
8

C      9.7752      0.1497      0.4238
H     10.6041     -0.4935      0.4578
C      9.2000      1.2314      0.7731
H      9.2038     -1.5663     -0.6232
H      8.2613      1.2787      0.7863
H      9.5870      2.1989      0.8317
C      8.9922     -0.9013      0.1280
H      7.8367     -0.6445      0.2533
8

C      9.8621      0.0565      0.5232
H     10.9353     -0.3878      0.2348
C      9.1465      1.2392      0.9382
H      9.1854     -1.7300     -0.5760
H      8.1949      1.5957      0.9354
H      9.7526      2.1095      0.6359
C      8.9514     -0.8890      0.1199
H      8.0767     -0.4693     -0.0778
8

C      9.9097      0.0369      0.5590
H     10.8955      0.3706      0.0326
C      9.2694      1.2504      1.0594
H      9.8671     -1.2464     -0.5092
H      8.2793      1.7157      1.0268
H      9.7768      2.1263      0.6273
C      8.8584     -0.9231      0.0125
H      7.8961     -0.6535     -0.4504
8

C      9.8631      0.0310      0.5860
H     10.9694      0.0478      0.4590
C      9.3018      1.2027      1.0412
H      9.6478     -1.5286     -0.6663
H      8.1851      1.5331      0.9874
H      9.9659      2.1191      1.1732
C      8.9629     -0.9650     -0.1409
H      7.8881     -0.4850     -0.0978
8

C      9.8711      0.0864      0.5777
H     11.1335      0.0383      0.6296
C      9.3072      1.1944      0.9912
H      9.3457     -1.5053     -1.0429
H      8.3170      1.4403      0.7666
H     10.0479      1.5229      1.6401
C      9.1028     -0.9255     -0.2031
H      8.1497     -0.5122     -0.1011
8

C      9.9883      0.0309      0.2908
H     10.7487     -0.3546     -0.2602
C      9.2271      1.2429      1.0360
H      8.6007     -1.6522      0.7453
H      9.5170     -1.5248     -0.8461
H      8.1295      0.8759      1.0333
C      8.9456     -0.9871     -0.1257
H      8.3634     -0.4685     -0.8104
8

C     10.0054      0.2434      0.3947
H     11.0393      0.3793      0.3395
C      9.2074      1.0417      0.6961
H      8.6090     -1.3649      0.3727
H      9.6164     -1.4069     -0.8213
H      8.1958      1.0093      1.0065
C      9.1793     -0.7944     -0.2085
H      8.4178     -0.3855     -0.7211
8

C     10.1665      0.1579      0.4008
H     10.9548      0.9281      0.9946
C      9.0536      1.2640      0.6222
H      8.6171     -1.5585      0.3587
H      9.7070     -1.6341     -0.7434
H      8.0466      0.6619      0.6153
C      9.3297     -0.8801     -0.3218
H      8.5065     -0.3859     -0.7839
8

C     10.0225      0.1135      0.5452
C      9.0356      1.0599      0.6698
H      8.3461     -1.5237      0.9125
H      9.3800     -1.7066     -0.5455
H      8.2514      1.0610     -0.1187
H      9.3047      1.5259      1.6164
C      9.0337     -1.0229      0.1192
H      8.1390     -0.7382     -0.2126
8

C      9.9746      0.0858      0.6215
C      9.0835      1.0744      0.7075
H      8.4506     -1.5045      0.8359
H      9.5990     -1.6009     -0.6340
H      8.2912      0.9449      0.0359
H      8.8140      1.5840      1.8000
C      9.0813     -0.9948      0.0096
H      8.1753     -0.5414     -0.5404
8

C     10.1742      0.1005      0.3906
C      9.1458      1.0757      0.8116
H      8.8398     -1.9097      0.4536
H      9.6612     -1.3787     -0.7404
H      8.3132      0.7539      0.2969
H      8.6968      1.1275      1.7923
C      9.1822     -0.9441      0.0800
H      8.2727     -0.4712     -0.5532
8

C     10.0833     12.9841      0.4367
C      9.2209     13.9062      0.7206
H      8.4912     11.2944      0.6356
H      9.7135     11.4426     -0.7793
H      8.1735     13.5841      0.6967
H      9.2673     14.1006      1.9034
C      9.1861     11.9055     -0.0239
H      8.3749     12.1414     -0.7412
8

C     10.2451     12.9159      0.4603
C      9.2142     14.0062      0.7151
H      8.3534     11.5959      0.5527
H      9.2209     10.9376     -0.7725
H      8.3366     13.7621      0.4461
H     10.2182     13.6717      1.4946
C      9.1360     11.8028     -0.2515
H      8.5966     12.3226     -1.0630
8

C     10.2226     12.7941      0.4643
C      9.4798     13.8573      0.5039
H      8.1982     11.7990      0.1936
H      9.2929     11.0497     -0.7321
H      8.3645     13.3915      0.4214
H      9.3244     13.9336      1.7292
C      9.0794     11.8920     -0.2852
H      8.9534     12.6419     -0.9635
8

C     10.0759     12.5679      0.3608
H     10.8877     11.9073      0.7385
C      9.4467     13.6883      0.7751
H      9.3303     10.8423     -0.7695
H      8.2498     13.6246      0.4048
H     10.0010     14.5501      1.0441
C      9.1700     11.8097     -0.4631
H      8.5478     12.2060     -1.2994
8

C     10.1125     12.5914      0.2781
C      9.5011     13.6266      0.9121
H      7.9694     11.2915      0.0040
H      9.4883     10.7778     -0.6840
H      8.5549     14.1867      0.8283
H     10.2933     14.5330      1.1035
C      8.9082     11.7816     -0.5593
H      8.8553     12.1505     -1.5333
8

C     10.0704     12.5888      0.1816
C      9.5025     13.6461      0.9050
H      7.9601     11.6087      0.1538
H      9.3026     10.7606     -0.5270
H      8.4098     13.7560      0.7672
H     10.4097     14.2188      1.3955
C      8.9439     11.7672     -0.5180
H      8.6822     12.0166     -1.4753
8

C      9.8558     12.5017     12.5625
H     10.6248     12.5178     11.7329
C      9.4420     13.5303     13.7689
H      8.5619     10.6947     12.2065
H      8.7224     14.2187     12.7862
H     10.3253     14.3150     13.8939
C      8.5428     11.8215     12.3163
H      7.8079     12.3038     13.2095
8

C      9.8970     12.2539     12.6181
H     10.6167     12.1346     11.8756
C      9.5306     13.6890     13.4987
H      8.5332     11.1562     11.6272
H      8.7286     13.9440     12.9431
H     10.6326     14.0799     13.4501
C      8.6617     11.7763     12.3850
H      7.6753     12.3160     12.5880
8

C      9.9095     12.2957     12.5867
H     10.6604     12.1261     11.6668
C      9.6035     13.4982     13.4839
H      8.2103     10.9853     11.5673
H      8.6714     13.9710     12.8058
H     10.4449     14.3153     13.7535
C      8.6077     11.7574     12.4190
H      7.6210     12.2471     12.4709
