9

C      9.8053      0.0454      0.4297
H     10.8053     -0.4415      0.6815
C      9.5171      1.3386      0.6913
H     10.3833      2.3765      2.3789
H      9.4013     -1.1769     -0.9389
H      8.3252      1.7452      0.4402
H      9.1744      1.5819      1.9762
O      9.4616      2.1009      2.8104
C      9.1380     -1.1092      0.0884
