15

C     10.1449     13.5305     10.9852
C      9.6185     12.6163     12.1000
H     10.6609     12.1074     12.4310
O      8.6258     11.8536     14.1479
O      9.5151     14.5105     10.6377
C      9.1945     13.1296     13.2686
H      7.4975     12.1296     11.7348
H      8.9717     10.7640     12.0343
H     10.1342     13.2125     13.8864
H     11.4079     13.6142      9.3625
N     10.9276     12.9410     10.2238
H      7.6505     11.7805     14.3038
C      8.5701     11.7263     11.5308
H     11.3975     12.0509     10.3851
H      8.6735     11.1267     10.3591
15

C     10.0718     13.5059     11.1864
C      9.4994     12.6613     12.2066
H     10.4117     11.8648     12.5071
O      8.8207     11.8131     14.0417
O      9.5232     14.5051     10.6228
C      9.1431     13.2770     13.6089
H      7.6773     11.6744     11.6159
H      8.8147     10.7306     11.5175
H      9.8508     13.7829     14.4459
H     11.8814     13.3704      9.7183
N     11.0402     12.8700     10.2607
H      7.8686     11.7338     13.8500
C      8.5839     11.7558     11.3848
H     11.3480     11.9534     10.2103
H      8.4588     12.2963     10.5954
15

C     10.1393     13.4521     11.1034
C      9.6322     12.7784     12.3505
H     10.4444     11.8688     12.4976
O      8.8554     11.7774     14.0467
O      9.4744     14.4773     10.8346
C      9.1115     13.2391     13.6662
H      7.4422     11.6076     11.8673
H      8.6656     10.7341     10.9561
H      8.0260     13.7427     13.7319
H     11.5651     13.7277      9.6194
N     10.9644     12.8817     10.2292
H      7.9569     11.6455     14.7203
C      8.4721     11.7747     11.4201
H     11.2960     11.9298      9.9536
H      8.4507     12.0850     10.4937
15

C     10.1478     13.4432     11.1251
C      9.6275     12.7045     12.3024
H     10.4956     12.2243     12.6495
O      8.9124     11.8303     14.1073
O      9.4822     14.4596     10.8316
C      9.1519     13.1953     13.6813
H      7.4296     11.9558     12.0460
H      8.8996     10.8114     10.9590
H      7.8652     13.7009     13.8523
H     11.4874     13.5447      9.5384
N     10.9315     12.8474     10.1943
H      7.8567     11.8788     14.6360
C      8.4834     11.7774     11.5140
H     11.2940     11.8806     10.0069
H      8.4679     12.2482     10.4735
15

C      9.8284     13.3151     10.8528
C      9.6431     12.7624     12.3212
H     10.7247     12.2416     12.3222
O      8.8927     11.6984     14.0723
O      9.4464     14.4803     10.6724
C      8.9427     13.2367     13.6811
H      7.3936     11.5810     11.8255
H      9.3502     11.0123     11.4221
H      8.1944     14.0643     13.2611
H     11.5260     13.5146      9.5786
N     10.9307     12.8128     10.2168
H      7.8973     11.7067     14.2888
C      8.5140     11.8344     11.4385
H     10.8583     11.8365      9.5780
H      8.0650     12.1969     10.5385
15

C      9.9506     13.3155     10.8416
C      9.5787     12.7096     12.2345
H     10.7032     12.3629     12.3188
O      8.9012     11.9559     14.1070
O      9.3955     14.5051     10.6438
C      8.9932     13.3189     13.6385
H      7.7090     11.6325     12.1345
H      9.3736     10.7763     11.3268
H      7.8872     13.5167     13.7441
H     11.3180     13.7723      9.8057
N     10.9829     12.9274     10.2080
H      8.0626     11.7237     14.2361
C      8.6057     11.6372     11.5614
H     11.4016     11.9651      9.9738
H      8.7050     11.8577     10.4743
15

C      9.9839     13.4492     10.9630
C      9.6611     12.5957     12.3155
H     10.0898     11.7684     12.8852
O      8.8803     12.0286     14.1046
O      9.3965     14.4398     10.6347
C      9.0768     13.3266     13.5777
H      7.9707     11.5188     12.1206
H      9.4125     10.6077     12.1157
H      8.0202     13.7563     13.6610
H     11.3075     13.8691      9.6541
N     11.0518     12.9722     10.1524
H      7.9972     11.6800     14.0496
C      8.9059     11.6054     11.7353
H     11.3560     12.1498      9.5830
H      8.5550     11.8448     10.7147
15

C      9.7786      0.8049     10.9828
C      9.4197     -0.3435     12.1586
O      8.9474     -0.8059     14.4300
O      9.3094      1.9419     10.6499
C      8.8187      0.4085     13.2737
H      7.5303     -1.3489     12.3895
H      8.6742     -1.9436     10.9711
H      7.7794      0.5753     13.4249
H      9.2708      1.0483     13.9541
H     11.6446      1.0916      9.8929
N     11.0179      0.3652     10.1891
H      8.1746     -1.3404     14.2427
C      8.3505     -1.2041     11.6204
H     11.7597     -0.0979     10.6679
H      7.5932     -0.7696     10.9478
15

C      9.9391      0.9211     11.1802
C      9.4460     -0.2993     12.1905
O      8.9878     -0.8587     14.3273
O      9.2377      1.9556     10.8719
C      8.8852      0.0872     13.5424
H      8.1576     -2.2056     12.3573
H      8.9298     -1.8351     10.7574
H      7.8887      0.3199     13.7619
H      9.6693      0.8348     13.7944
H     11.4985      1.3398      9.8182
N     11.0035      0.4624     10.2126
H      8.1681     -1.1511     14.1748
C      8.3026     -1.2275     11.4524
H     11.5191     -0.0585     10.9051
H      7.4656     -0.6990     10.9607
15

C      9.9417      0.7822     11.1418
C      9.5220     -0.2363     12.2673
O      9.0995     -0.9865     14.3957
O      9.4341      1.8282     10.8905
C      8.9456      0.4045     13.6018
H      8.1431     -1.9222     12.8239
H      8.3925     -1.8285     10.7569
H      7.6542      0.5757     13.4706
H      9.4061      1.1553     14.3058
H     11.4957      1.1623      9.7334
N     10.9537      0.4437     10.3874
H      8.6086     -1.7549     14.7579
C      8.4882     -1.1841     11.6859
H     11.6946     -0.1627     10.6027
H      7.4629     -0.6882     11.4882
15

C      9.6995      0.5485     11.3064
C      9.2904     -0.3034     12.2799
H      9.9383     -1.0930     12.2424
O      8.8251     -0.8235     14.4128
O      9.2588      1.6871     11.0301
C      9.2143      0.2741     13.5368
H      8.1460     -1.7338     12.7042
H      8.6709     -1.6530     10.9383
H      8.4504      1.0257     13.7827
H     11.1068      0.9339      9.6469
N     10.7290      0.2470     10.4802
H      9.3510     -1.3887     13.7686
C      8.1015     -1.0182     11.7287
H     10.9913     -0.9673     10.3281
H      7.1041     -0.6264     11.7248
15

C      9.7658      0.7192     11.3429
C      9.3565     -0.3394     12.2435
H      9.9937     -1.2373     12.2893
O      8.8115     -0.8843     14.3602
O      9.2299      1.7530     11.0057
C      9.3040      0.3038     13.5716
H      8.4613     -1.8761     12.2710
H      8.4124     -1.9706     10.7157
H      8.4875      0.8535     14.0958
H     10.4221      0.6746      9.5888
N     10.7549      0.2978     10.4660
H      9.2075     -1.5951     13.7783
C      8.2042     -1.0732     11.6293
H     10.9679     -0.8105     10.3426
H      7.4382     -0.3396     11.5074
15

C      9.7593      0.7582     11.2190
C      9.3268     -0.3483     12.2695
H     10.0429     -1.3161     12.1999
O      8.7569     -0.8575     14.4115
O      9.2048      1.7532     10.9358
C      9.3076      0.1918     13.5929
H      8.2342     -1.9059     12.1653
H      8.5277     -1.4046     10.7985
H      8.6064      1.1028     13.9391
H     10.6419      0.7932      9.4105
N     10.6839      0.3160     10.5117
H      9.0939     -1.5804     13.8500
C      8.1297     -1.0207     11.6527
H     10.7678     -0.6480     10.8462
H      7.3402     -0.3663     11.5180
15

C      9.4677      0.6672     11.1023
C      9.3326     -0.3993     12.1564
O      8.5529     -0.7505     14.3609
O      9.0940      1.7307     10.7337
C      9.1185      0.3270     13.6451
H      7.6460     -1.6958     12.6654
H      7.7307     -1.4451     11.0393
H      8.5333      1.1257     14.2662
H     10.1701      0.4442     13.9476
H     11.3643      0.6957      9.7901
N     10.7930      0.1565     10.5733
H      8.5626     -1.6615     14.1800
C      7.9765     -1.0363     11.9118
H     11.1694     -0.7750     10.8202
H      7.2435     -0.3038     11.6599
15

C      9.4519      0.5969     10.8960
C      9.3589     -0.3883     12.0272
O      8.4388     -0.7054     14.3749
O      9.0125      1.7073     10.7186
C      9.1306      0.2240     13.6753
H      7.7861     -1.7472     12.3603
H      7.7731     -1.7113     10.8866
H      8.5876      1.0732     13.6671
H     10.1465      0.3797     13.8665
H     11.5520      0.9082     10.7298
N     10.8606      0.1706     10.3776
H      9.0838     -1.3662     14.2255
C      8.1057     -1.0144     11.8990
H     11.0169     -0.7641     10.3949
H      7.5765     -0.3347     11.5205
15

C      9.6439      0.5649     10.8694
C      9.3647     -0.4065     11.9890
H     10.0389     -1.1556     12.1922
O      8.3917     -0.6042     14.2713
O      8.9085      1.5939     10.7133
C      9.1971      0.2175     13.6305
H      7.5571     -1.5830     12.5230
H      7.9680     -1.5412     10.7072
H      8.9365      1.2814     13.7125
H     10.2181      0.2286     14.3444
H     11.6816      0.8124     10.9555
N     10.9064      0.4742     10.3050
H      9.0173     -1.1073     15.0216
C      8.0938     -1.0822     11.7620
H     11.0340     -0.4354     10.4635
15

C      9.6870      0.7199     11.0316
C      9.3769     -0.4599     11.8375
H     10.0277     -1.4581     11.7980
O      8.4504     -0.6051     14.3051
O      8.8027      1.5586     10.6152
C      9.1671      0.2790     13.4942
H      7.4258     -1.2693     12.7841
H      8.0635     -1.5637     10.9005
H      8.7391      1.3053     13.4198
H     10.1092      0.5684     14.0018
H     11.5232      1.2037     10.3297
N     10.8939      0.4866     10.2958
H      9.0217     -0.7811     14.9260
C      7.9952     -1.0457     11.7690
H     11.4619     -0.4081     10.9419
15

C     10.1167     13.3894     10.9105
C      9.7327     12.2174     12.3261
H     10.5799     11.5335     12.8308
O      8.0259     12.5281     13.8782
O      9.0972     13.7696     10.5563
C      9.3123     13.1010     13.5460
H      8.9926     10.4789     11.4329
H      9.0276     14.1897     13.1206
H      9.6420     13.6321     14.4004
H     11.1567     13.5900      9.2176
N     11.2916     13.3767     10.2502
H      7.9594     12.0586     14.7772
C      8.4381     11.4296     11.9572
H     12.1735     13.0353     10.6380
H      7.6985     11.3454     12.9932
15

C     10.1171     13.0346     10.8195
C      9.6211     12.1433     12.2214
H     10.3208     11.4601     12.8244
O      7.8023     12.5036     13.7925
O      9.0065     13.7992     10.5738
C      9.2013     13.0981     13.1447
H      8.7883     10.5339     10.8840
H      9.0357     14.1360     12.5149
H     10.1523     13.0758     13.7410
H     11.4912     14.3716      9.6465
N     11.3459     13.4178     10.1485
H      8.2832     12.4144     14.6397
C      8.5818     11.3892     11.7454
H     11.7234     12.4680      9.7555
H      7.6319     10.7628     12.2315
15

C      9.9754     13.0144     10.8873
C      9.5413     12.1702     12.1161
H     10.2615     11.4175     12.4147
O      7.8164     12.5240     13.7767
O      9.0215     13.8944     10.6314
C      9.1691     13.0509     13.0451
H      8.7420     10.7954     10.6724
H      8.6490     14.1561     12.8907
H     10.0695     13.2450     13.8359
H     11.1884     14.3522      9.8020
N     11.3353     13.3550     10.1185
H      8.2223     12.3188     14.6867
C      8.5163     11.3241     11.5856
H     11.3456     12.6184      9.3748
H      7.6756     10.7500     12.1294
15

C      9.9731     13.1327     10.8126
C      9.5543     12.1619     11.9900
H     10.4308     11.5362     12.2005
O      7.9312     12.4971     13.8715
O      9.0947     13.9484     10.7105
C      9.2033     13.0475     13.2748
H      8.6308     11.0444     10.4505
H      8.6020     14.0732     12.5963
H      9.9172     13.1403     14.2329
H     10.9763     14.2559      9.6814
N     11.3324     13.3902     10.1445
H      8.0942     12.4594     14.9129
C      8.4766     11.3476     11.5816
H     11.6061     12.5877      9.5183
H      8.0116     10.6776     12.3603
15

C     10.0374     13.0943     10.7173
C      9.7988     12.1809     12.0061
H     10.4892     11.3666     11.9267
O      7.9475     12.3483     13.8470
O      9.1761     14.0672     10.7901
C      9.1911     13.0735     13.2191
H      8.5666     10.9372     10.5210
H      9.2394     13.9612     12.4923
H      9.8219     13.5250     14.1410
H     11.2258     14.2875      9.5888
N     11.3494     13.3884     10.0641
H      7.9155     12.9831     14.5680
C      8.4981     11.3348     11.5321
H     11.6466     12.5566      9.5977
H      8.1277     10.3017     11.9682
15

C      9.9235     13.0550     10.7854
C      9.8028     12.3083     11.9408
H     10.5133     11.4977     11.6766
O      7.9679     12.4445     13.7926
O      9.1303     14.0176     10.8107
C      9.2012     13.0427     13.1996
H      8.9384     10.8352     10.7123
H      7.7381     12.1605     11.5303
H      9.7723     13.4894     14.1203
H     11.4954     14.0789      9.7961
N     11.1617     13.2198     10.2356
H      7.5949     12.9185     14.5544
C      8.4773     11.2934     11.5974
H     11.6344     12.5650      9.7482
H      8.4530     10.4788     12.3905
15

C      9.9350     13.0949     10.9063
C      9.7556     12.2887     12.0101
H     10.7595     11.4670     12.0674
O      8.0424     12.4101     13.6640
O      9.0285     14.0371     10.7887
C      9.1830     13.2031     13.2224
H      8.8783     10.7274     10.8012
H      7.7735     12.0332     11.5754
H      9.9492     13.3019     14.1790
H     11.1492     13.6996      9.6225
N     11.1272     13.0735     10.3561
H      7.7248     12.9087     14.6761
C      8.6154     11.3073     11.6162
H     11.8406     12.3721      9.8246
H      9.0816     10.7497     12.3925
15

C      9.8402     13.0755     10.9261
C      9.6214     12.3239     12.0923
H     10.5156     11.7826     12.3992
O      8.1292     12.4134     13.7159
O      9.1747     14.0755     10.8436
C      9.0837     13.0510     13.2100
H      9.0873     10.6880     10.9501
H      7.4649     11.6756     11.2855
H      9.9184     13.1688     13.8976
H     11.0164     13.8433      9.5814
N     11.0151     13.1109     10.3698
H      8.4160     12.2602     14.7778
C      8.6525     11.3793     11.5745
H     11.7625     12.4053     10.3412
H      8.3432     10.7367     12.2841
15

C      9.9749     13.3960     10.7755
C      9.8829     12.2493     11.7755
O      8.7595     12.6049     13.9577
O      8.9718     14.0464     10.6330
C      9.8461     12.9325     13.1885
H      8.8215     11.2812     10.4011
H      7.7375     12.5241     11.2841
H      9.6135     13.9935     13.0400
H     10.8447     13.0337     13.3589
H     11.2082     13.9343      9.1856
N     10.9780     13.0859      9.8157
H      9.0307     13.2246     14.8071
C      8.4250     11.6936     11.4762
H     11.5147     12.1855     10.1092
H      7.9516     11.2646     12.2258
15

C     10.1186     13.3824     10.9062
C      9.7649     12.2777     11.7494
O      8.6676     12.5196     13.9066
O      9.0976     14.0166     10.5606
C      9.8543     13.0479     13.0764
H      8.2991     11.2173     10.3337
H      7.8058     12.4868     11.8453
H      9.2114     14.0089     12.9358
H     10.8330     13.3335     13.3987
H     11.1940     13.7418      9.2387
N     10.9082     13.1606      9.8556
H      9.1616     12.7617     14.8167
C      8.5168     11.7341     11.5143
H     11.5603     12.2934      9.9557
H      8.2889     10.9318     12.1266
15

C     10.1481     13.3505     10.7929
C      9.7484     12.2446     11.8267
O      8.6498     12.5628     13.9048
O      9.1373     14.0887     10.6967
C      9.7931     12.9625     13.1891
H      8.2679     11.4444     10.3853
H      7.7721     12.2365     11.9304
H      9.7160     13.9578     13.2614
H     10.8375     13.4804     13.7651
H     11.2309     13.9724      9.0628
N     11.0448     13.2295      9.7961
H      9.0319     12.8120     14.7417
C      8.3635     11.6778     11.4055
H     11.5709     12.4841     10.3806
H      8.4048     10.7084     11.9242
15

C      9.5881      0.5125     10.9805
C      9.4243     -0.7802     12.0219
O      8.4290     -0.1275     13.9613
O      9.3440      1.6096     11.2205
H      8.2621      0.1577     14.9688
C      9.6880     -0.0197     13.3656
H      8.2683     -2.4120     11.7364
H      7.1722     -1.1509     11.1842
H      9.9149      1.0393     13.2003
H     10.5858     -0.4686     13.4506
H     10.5147     -0.6381      9.5309
N     10.8190      0.2044     10.0850
C      8.0416     -1.3803     11.8195
H     11.5320     -0.3880     10.9185
H      7.7204     -1.2687     12.8047
15

C      9.5741     13.2517     10.8952
C      9.3222     12.1867     12.0300
O      8.3555     12.8425     13.8878
O      9.3689     14.4344     11.1087
H      8.1965     13.0498     14.6987
C      9.5770     12.8885     13.3578
H      8.2116     10.5072     11.5637
H      7.1107     11.9361     11.2201
H     10.1534     14.0150     13.2672
H     10.5111     12.4715     14.0834
H     10.8570     12.5292      9.1633
N     10.8087     13.1492     10.1246
C      7.9696     11.4645     11.8711
H     11.6631     12.8324     10.5233
H      7.5917     11.2446     13.0079
15

C      9.5206     13.0480     10.8777
C      9.2591     12.2050     11.9585
O      8.2808     12.7851     13.8293
O      9.3729     14.3380     11.1484
H      8.3680     13.0680     14.6225
C      9.4859     13.1033     13.3225
H      8.2693     10.6349     11.2481
H      7.2984     12.0042     11.1825
H      9.9472     14.1776     13.3396
H     10.4401     12.2892     13.8176
H     10.8969     12.7472      8.9904
N     10.7992     13.1646     10.0164
C      7.9891     11.4863     11.8384
H     11.6723     13.0267     10.5773
H      7.4410     11.1236     12.6537
15

C      9.7019      0.4561     10.6318
C      9.3100     -0.7127     11.6472
O      8.1693     -0.3245     13.9625
O      9.3316      1.5068     11.2430
H      8.0315     -0.4493     14.9633
C      9.3270      0.0344     13.0259
H      8.3436     -2.2911     11.5903
H      7.4540     -0.9755     10.7338
H      9.5699      1.0830     12.8198
H     10.2314     -0.0707     13.5335
H     10.8163     -0.2638      8.9034
N     10.8002      0.2992      9.8625
C      8.0432     -1.1605     11.5815
H     11.7433      0.2905     10.6721
H      7.6596     -1.5646     12.4647
15

C      9.7318      0.4440     10.7318
C      9.3865     -0.6629     11.6669
O      8.1246     -0.3881     13.9895
O      9.3754      1.6269     10.9344
H      8.8447     -0.6960     14.6296
C      9.4187     -0.1435     13.2096
H      7.9860     -2.4094     11.7419
H      7.5532     -1.2590     10.6578
H      9.2272      0.8022     13.0449
H     10.1446     -0.5829     13.6359
H     11.1819      0.1198      8.9224
N     10.9531      0.4066      9.9105
C      7.8863     -1.3251     11.6593
H     11.6360      1.2759     10.1211
H      7.2698     -0.6122     12.3301
15

C     10.0289      0.4900     10.7825
C      9.5870     -0.5261     11.7991
H     10.5129     -1.0568     11.9607
O      8.3628      0.2414     13.7255
O      9.5936      1.6457     10.5388
H      7.2838      0.3754     13.7851
C      9.4940      0.2720     13.0797
H      7.6718     -0.3185     10.9514
H      8.0417     -1.4939     12.3039
H     10.5660      0.0773     13.5583
H     11.5531     -0.7082      9.9104
N     10.6792      0.0060      9.6455
C      8.3228     -1.1239     11.2554
H      9.8010      0.1617      8.9932
H      8.7539     -1.9208     10.6031
15

C      9.9756      0.3665     10.6425
C      9.6875     -0.4505     11.8957
H     10.3346     -1.2758     11.9597
O      8.4837     -0.0167     14.0201
O      9.5099      1.4825     10.8900
H      7.6237      0.1390     13.5033
C      9.4846      0.3299     13.2119
H      7.4351     -0.4263     11.9579
H      8.7181     -1.7515     12.4216
H     10.4562      0.0998     13.8546
H     11.1904     -1.0077      9.5638
N     10.5454     -0.1480      9.5797
C      8.3253     -1.0805     11.7309
H      9.8844     -0.1458      8.7240
H      7.7619     -1.4377     10.7850
15

C     10.0896      0.4901     10.9160
C      9.6237     -0.6329     11.9281
H     10.2098     -1.4200     11.1961
O      8.4436      0.0617     13.8781
O      9.3247      1.6825     11.2225
H      7.7138     -0.6728     13.9996
C      9.8423      0.0171     13.2300
H      7.3837     -0.7428     11.6368
H      8.0562     -2.0374     12.0714
H     10.5754      1.1060     12.9247
H     10.9616     -0.7091     10.1066
N     11.0670      0.4104     10.0917
C      8.3319     -1.1667     11.4514
H     11.7698      1.0786      9.7909
H      8.4107     -1.4912     10.2903
15

C      9.9336      0.4578     10.8909
C      9.6123     -0.6406     12.0081
H     10.5122     -1.1744     11.9376
O      8.3891      0.1795     13.8995
O      9.3778      1.7148     11.2243
H      7.6472     -0.3868     13.2765
C      9.8842     -0.0016     13.3836
H      7.3829     -0.8152     11.3594
H      8.1570     -2.3163     11.7416
H     10.3936      0.8225     13.0637
H     11.5417     -0.4564      9.7949
N     11.0684      0.4155      9.9046
C      8.2915     -1.1697     11.5002
H     11.7825      1.0335      9.4974
H      8.7708     -1.4911     10.3918
15

C      9.8660      0.5638     10.7836
C      9.6293     -0.4982     12.0566
H     10.1514     -1.3623     12.1797
O      8.5076      0.2160     13.9871
O      9.4234      1.5533     11.2869
H      7.6048      0.1671     13.6388
C      9.8522      0.0285     13.3865
H      7.5976     -0.7679     12.0013
H      7.7455     -2.2443     11.8209
H     10.5979      0.6222     13.3056
H     11.5265     -0.1454     10.2467
N     10.9644      0.4698      9.8880
C      8.2439     -1.2643     11.4787
H     11.5232      1.0510      9.1397
H      8.4724     -1.3736     10.2751
15

C      9.8256      0.4953     10.8997
C      9.7561     -0.5687     11.9781
H     10.8560     -1.0568     11.9215
O      8.5358      0.2264     14.2032
O      9.5157      1.5742     11.4107
H      7.5435     -0.0053     13.8066
C      9.5383     -0.0375     13.4175
H      7.7651     -0.7779     12.4221
H      7.9977     -2.4949     11.8805
H     10.1976     -0.9882     13.9353
H     11.6552     -0.2273     10.0311
N     10.9246      0.4673      9.8969
C      8.2652     -1.2950     11.6173
H     10.5830      0.8071      8.9705
H      8.6139     -1.2320     10.7261
15

C      9.8066      0.6015     11.0364
C      9.6523     -0.6919     12.0222
H     10.2618     -1.5511     11.7876
O      8.2896      0.1157     14.0038
O      9.6818      1.6892     11.4670
H      7.6859      0.6608     13.6901
C      9.7548     -0.0851     13.4429
H      7.6913     -0.5866     11.9258
H      7.8485     -2.2795     12.3913
H     10.3046      0.8627     13.5394
H     10.3027     -0.7846     14.0237
H     10.9263     -0.7575      9.6637
N     10.7594      0.3887     10.0210
C      8.3535     -1.3831     11.5975
H     11.2120      1.1377      9.3593
15

C     10.1900      0.4483     11.0576
C      9.8437     -0.7204     11.9676
H     10.9124     -1.1751     12.1157
O      8.2750      0.1396     13.9393
O     10.1268      1.6536     11.3174
H      7.7397     -0.2478     13.0134
C      9.7456     -0.3003     13.2776
H      7.7206     -0.3534     11.7056
H      8.6674     -2.2591     12.0061
H      9.7488      0.9278     13.5062
H     10.9253     -0.8353      9.4069
N     10.8653      0.0882      9.8347
C      8.5284     -1.3689     11.3719
H     11.0494      1.0694      9.1388
H      8.4615     -1.4943     10.3124
15

C     10.1822      0.4465     10.9949
C      9.8472     -0.6805     11.9739
H     10.8092     -1.1109     11.8997
O      8.2327      0.1525     13.9616
O     10.1094      1.6871     11.3266
H      7.5161     -0.3084     13.1686
C      9.8149     -0.1899     13.3071
H      7.9679     -0.4542     11.5025
H      8.6482     -2.1787     11.9853
H     10.0408      0.7509     13.3496
H     11.0387     -0.8668      9.3638
N     10.8398      0.1519      9.8439
C      8.5961     -1.3347     11.2622
H     10.9114      0.7603      9.2723
H      8.1969     -1.3624     10.3294
