13

C     10.1069      0.6635     11.1960
C      9.6843     -0.4897     12.2934
H     10.5703     -1.2596     12.3489
O      8.9580     -0.1924     14.7386
O      9.4155      1.5377     11.0646
H      9.3856      0.2221     15.5375
C      9.4651      0.4425     13.5141
H      8.6438     -1.5418     10.8057
H      7.6313     -1.0061     12.1434
H      9.0582      1.4413     12.9505
H     10.4726      0.8639     13.4984
C      8.5809     -1.3036     11.8772
H      8.5632     -2.2847     12.4727
13

C     10.1386      0.5489     11.1998
C      9.7768     -0.5132     12.2547
H     10.5925     -1.3519     12.3945
O      8.9206     -0.1989     14.7430
O      9.4751      1.4798     11.1064
H      9.6933      0.2292     15.3785
C      9.4460      0.4505     13.5098
H      8.5833     -2.1121     11.0367
H      7.5868     -1.2253     12.1488
H      8.8456      1.3059     12.8740
H     10.2948      1.1961     13.5731
C      8.6012     -1.3636     12.0125
H      9.1164     -1.9624     12.7701
13

C     10.1063     13.3480     11.1772
C      9.7850     12.4080     12.2070
H     10.6583     11.7856     12.1910
O      8.9069     12.6120     14.7720
O      9.4636     14.3820     11.1368
H      9.7568     12.4924     15.1872
C      9.4259     13.2640     13.4859
H      9.0637     10.9024     11.2009
H      7.5676     12.2055     12.1191
H      8.6374     14.1529     13.0529
H     10.3708     13.6151     13.6924
C      8.4409     11.4637     12.0195
H      8.8939     10.9480     12.9061
13

C     10.0189     13.2669     11.0877
C      9.6121     12.2610     12.2903
H     10.3783     11.6936     12.6536
O      8.8933     12.3277     14.6868
O      9.4387     14.2248     11.1427
H      9.5078     12.3659     15.4560
C      9.3417     13.1326     13.5356
H      8.3839     11.0878     10.8016
H      7.7542     11.9480     12.0738
H      8.7692     14.2452     13.5588
H     10.2198     13.5587     13.9306
C      8.4889     11.3869     11.9413
H      7.8742     10.7346     12.6229
13

C     10.0740     13.1821     11.0781
C      9.5556     12.1327     12.4699
H     10.5387     11.7112     12.6637
O      8.8093     12.0663     14.5660
O      9.4463     14.1807     11.1463
H      8.6327     12.8849     15.1767
C      9.2811     13.0205     13.6226
H      7.9660     11.1765     10.8370
H      7.4354     11.9745     11.8989
H      8.4425     13.6905     13.4284
H     10.2957     13.3707     14.0063
C      8.4227     11.3114     11.8593
H      8.1112     10.2469     12.2880
13

C      9.9977     13.1669     11.1620
C      9.5586     12.1116     12.4271
H     10.4467     11.6567     12.6662
O      8.7547     12.0439     14.5929
O      9.4843     14.2432     11.1234
H      8.4028     12.7959     15.4570
C      9.2586     13.0197     13.5050
H      7.9916     11.1557     10.9694
H      7.5065     12.1554     12.0695
H      8.4234     13.6424     12.8762
H     10.0004     13.5195     14.0537
C      8.4472     11.3477     11.8188
H      8.1730     10.4202     12.4249
13

C     10.0621     13.2981     11.3284
C      9.7981     12.2350     12.3054
H     10.7444     11.8399     12.3924
O      8.6008     12.3187     14.6281
O      9.4564     14.2493     11.0799
H      8.2636     12.5700     15.5890
C      9.1439     12.9894     13.4420
H      8.4542     11.2385     10.6799
H      7.5167     11.8992     12.3946
H      8.2187     13.2677     12.8578
H      9.7356     14.1017     13.4542
C      8.2245     11.5097     11.8553
H      8.2486     10.5539     12.3019
13

C     10.1074     13.2619     11.2141
C      9.7386     12.2356     12.2165
H     10.8584     11.8064     12.4407
O      8.5986     12.3325     14.5504
O      9.4004     14.1707     11.1304
H      8.1126     12.7814     15.3329
C      9.2629     12.9949     13.4537
H      8.6913     11.4648     10.9049
H      7.6500     11.9865     12.5295
H      8.4082     13.6302     13.0814
H      9.9926     13.8293     13.7101
C      8.2518     11.5644     11.8477
H      8.3637     10.6620     12.4778
13

C     10.1869     13.2670     11.1861
C      9.7296     12.2029     12.2198
H     10.6616     11.7184     12.5796
O      8.6487     12.3450     14.5979
O      9.5185     14.2088     11.2037
H      8.3490     13.0740     15.2198
C      9.1931     13.0682     13.4595
H      8.2682     11.4945     10.7325
H      7.4688     12.1150     12.1726
H      8.4321     13.4663     12.9274
H     10.2110     13.7863     13.5544
C      8.3415     11.5041     11.8467
H      8.3580     10.6675     12.5465
13

C     10.1876     13.2847     11.1606
C      9.7109     12.2392     12.1860
H     10.2679     11.5469     12.9186
O      8.7656     12.2245     14.6882
O      9.6466     14.3008     11.1846
H      8.5511     12.8730     15.2224
C      9.2630     13.1213     13.3667
H      7.5726     11.4772     11.1881
H      7.5238     11.9927     12.4164
H      8.5825     13.7668     12.9018
H      9.7110     13.9566     13.8250
C      8.3425     11.4530     11.9295
H      8.2933     10.6840     12.8234
13

C     10.1617     13.1523     11.0777
C      9.6919     12.2952     12.2901
H     10.0049     11.2785     12.5123
O      8.7893     12.1744     14.5951
O      9.6670     14.2920     11.0762
H      8.7885     12.8985     15.2245
C      9.4254     13.0843     13.5234
H      8.7471     11.2355     10.7157
H      7.6758     12.1470     12.2868
H      8.2815     13.4292     13.2650
H     10.0647     13.8748     13.9849
C      8.4239     11.3936     11.9363
H      8.3042     10.3873     12.2464
13

C     10.0877     13.1816     11.0008
C      9.8414     12.3001     12.3640
H     10.4888     11.4488     12.4563
O      8.8253     12.1614     14.7152
O      9.5808     14.2192     11.1061
H      8.3674     12.8749     15.2730
C      9.3529     12.8962     13.6151
H      8.9366     11.5964     10.7082
H      7.7598     12.1169     12.2112
H      8.5998     13.6531     13.3598
H     10.2672     13.6022     13.7492
C      8.5036     11.4854     11.8258
H      8.6249     10.4621     12.0652
13

C     10.1349     13.1199     11.0493
C      9.8894     12.3550     12.2803
H     10.9645     12.1244     12.5172
O      8.8535     12.0902     14.6965
O      9.5264     14.1338     11.0810
H      7.8261     12.1762     14.4260
C      9.4468     12.9489     13.6618
H      8.7465     11.1720     10.6978
H      7.7069     12.3345     11.6139
H      8.4354     13.1493     13.4238
H      9.8394     13.7852     14.1912
C      8.6566     11.6590     11.6486
H      7.7834     11.1177     12.0426
13

C     10.3188     13.2227     11.1132
C      9.8270     12.4187     12.3207
H     10.7127     11.9574     12.7011
O      8.8973     12.0737     14.6930
O      9.5229     14.1580     11.1833
H      7.7848     11.6736     14.5807
C      9.3688     12.8654     13.6813
H      9.4481     11.2843     11.1953
H      8.0269     12.1639     11.0910
H      8.4501     13.6208     13.4202
H     10.1338     13.6436     14.2806
C      8.6727     11.6177     11.7084
H      8.2503     11.0955     12.4532
13

C     10.2359     13.2777     10.9166
C      9.6994     12.4499     12.3507
H     10.2013     11.6580     12.8055
O      8.9826     12.0618     14.5887
O      9.4410     14.0755     11.1783
H      7.9168     11.6516     14.2913
C      9.3129     13.0249     13.6942
H      9.1181     10.8943     11.2423
H      8.1292     12.1980     11.0343
H      8.5739     13.7994     13.3739
H      9.9459     13.4508     14.3683
C      8.7447     11.6586     11.7054
H      7.9677     11.1883     12.2745
13

C     10.2686     13.2685     10.8675
C      9.6954     12.3638     12.2384
H     10.5865     11.6100     12.1717
O      9.0377     12.0254     14.5627
O      9.4497     14.3214     11.0620
H      8.0227     11.5934     14.2969
C      9.3187     13.0685     13.6332
H      8.7011     10.9942     10.7294
H      7.5900     12.1979     11.1736
H      8.1704     13.4505     13.4055
H     10.3455     13.7192     13.6604
C      8.5017     11.6910     11.5517
H      8.1941     11.1480     12.5718
13

C     10.1831     13.3158     11.0248
C      9.6708     12.3518     12.0697
H     10.6243     11.4850     12.0678
O      9.0972     12.1202     14.4940
O      9.4913     14.2282     11.0586
H      8.2786     11.7474     14.2332
C      9.1827     12.9725     13.3885
H      8.6313     11.1207     10.8284
H      7.6226     12.1438     11.4514
H      8.4027     13.7616     13.4537
H      9.8113     13.9629     13.7752
C      8.4136     11.6183     11.7038
H      8.1690     11.1383     12.5799
13

C     10.0692     13.4412     11.0815
C      9.7286     12.3865     12.3464
H     10.3311     11.3365     12.5451
O      8.8531     12.3110     14.6848
O      9.3351     14.3470     11.0897
H      8.1888     11.8006     14.4722
C      9.4317     13.1385     13.6036
H      8.8858     10.9994     11.0527
H      7.8946     12.3342     11.1280
H      8.5908     13.5897     13.1500
H     10.5365     13.4926     14.0295
C      8.4755     11.8226     11.7005
H      7.8641     11.3506     12.4167
13

C     10.0487     13.3207     11.0424
C      9.7526     12.3115     12.4427
H     10.6951     11.7193     12.3116
O      8.7889     12.4017     14.6738
O      9.3882     14.3188     11.1796
H      8.1126     11.8710     14.3861
C      9.4458     13.1255     13.5894
H      8.7121     10.6733     11.3706
H      8.1074     12.2292     11.0213
H      8.4186     13.9294     13.4456
H      9.8566     13.8098     14.3892
C      8.5994     11.7632     11.8525
H      7.8717     11.4186     12.6689
13

C      9.9814     13.2492     11.3536
C      9.8914     12.2628     12.3419
H     10.5865     11.5633     12.2576
O      8.6754     12.3404     14.5273
O      9.2266     14.1089     11.1373
H      8.0467     11.9565     13.9571
C      9.4686     13.2630     13.6067
H      8.9998     10.3846     11.9443
H      7.8609     12.0966     11.3344
H      8.8384     13.6702     12.8132
H     10.3198     13.9061     13.8121
C      8.5629     11.4892     12.0141
H      7.9426     11.6219     12.9260
13

C      9.9850     13.2684     11.3326
C      9.8859     12.2301     12.3672
H     11.2315     11.9687     12.2415
O      8.6429     12.3568     14.4786
O      9.2280     14.0609     11.0591
H      7.9787     12.3747     13.9060
C      9.3457     13.2563     13.6061
H      8.7671     10.3658     11.9047
H      8.0199     11.7514     11.2296
H      8.5582     13.8116     12.9874
H     10.2923     13.7971     13.9314
C      8.5409     11.4680     12.1198
H      7.6389     11.5194     12.8822
13

C     10.0957     13.1652     11.3138
C      9.9334     12.0971     12.4288
H     10.9536     11.7938     12.8202
O      8.7147     12.5564     14.5227
O      9.3466     14.1070     10.9199
H      7.8917     12.5313     13.9286
C      9.3111     13.2451     13.6281
H      8.2731     10.4981     11.7334
H      8.3242     11.9827     11.0752
H      8.3975     13.9620     13.4495
H      9.9856     13.9756     14.0535
C      8.7481     11.3396     12.0436
H      7.6331     11.7195     12.6762
13

C     10.1516     13.2794     11.2481
C      9.7927     12.3693     12.2053
H     10.6689     11.9842     12.4692
O      8.8819     12.7753     14.5423
O      9.2453     13.7899     10.6994
H      8.8970     11.7867     14.0532
C      9.4013     13.5551     13.4983
H      8.8486     11.1130     11.2307
H      7.7612     12.5001     11.6557
H      8.6593     13.8835     12.8755
H     10.1536     14.2327     13.8246
C      8.4493     11.5936     12.1424
H      8.0287     10.8885     12.8647
13

C     10.0200     13.3410     11.1165
C      9.7452     12.3121     12.4053
H     10.3396     11.7379     12.8507
O      8.9019     12.4858     14.3778
O      9.2312     13.9732     10.5954
H      8.6447     11.5374     13.9744
C      9.2712     13.3113     13.2947
H      8.1599     11.2709     11.0850
H      7.7418     12.0285     12.6057
H      8.3386     13.9407     13.0434
H      9.8018     14.2939     13.5679
C      8.5501     11.5013     12.0341
H      8.5738     10.6216     12.6577
13

C     10.0540     13.2737     11.1040
C      9.6749     12.2811     12.3791
H     10.5168     11.9706     12.8903
O      8.7643     12.4807     14.4343
O      9.2509     13.9677     10.6133
H      8.3630     11.5729     13.8090
C      9.2542     13.3351     13.3364
H      7.7715     11.3763     11.0722
H      7.8588     11.7119     12.7677
H      8.4094     13.9946     13.3200
H     10.0413     14.1269     13.7646
C      8.6196     11.3878     11.9086
H      8.8828     10.3729     12.1246
13

C     10.1744     13.3300     11.0514
C      9.6036     12.4964     12.3612
H     10.2616     11.7742     12.7015
O      8.7929     12.3853     14.3086
O      9.2248     13.9416     10.6482
H      8.5507     11.5620     13.7313
C      9.2222     13.3848     13.4266
H      8.3107     11.8142     10.7634
H      7.9925     11.0752     12.7595
H      8.5469     14.1744     13.3637
H     10.0867     13.8245     14.1072
C      8.5615     11.4184     11.9604
H      8.9379     10.4370     11.7173
13

C     10.2040     13.3813     11.1712
C      9.7661     12.5541     12.3402
H     10.2871     11.8414     13.0588
O      8.7106     12.3802     14.3021
O      9.2631     13.8838     10.6955
H      8.4955     11.6623     13.7181
C      9.2995     13.4175     13.2977
H      8.5648     12.0533     11.2007
H      7.4251     11.5132     12.4270
H      8.3081     14.0565     13.2438
H      9.9261     13.8329     13.9811
C      8.5065     11.3949     12.0781
H      8.9515     10.3611     12.0728
13

C     10.1954     13.1283     11.1221
C      9.6172     12.4552     12.3628
H     10.4588     12.1174     13.1222
O      8.6316     12.3189     14.3773
O      9.4020     13.9078     10.6718
H      9.0594     11.4904     13.8872
C      9.1449     13.3572     13.3729
H      8.2342     11.8722     10.7847
H      7.5464     11.3280     12.5502
H      8.4439     14.1305     13.1734
H     10.0703     13.6109     13.9810
C      8.4004     11.5501     11.9353
H      8.7565     10.6753     11.7909
