19

C      6.7209      9.6032     10.1778
C      6.2869      8.2104      9.7092
H      6.3875     10.9621     11.6924
H      7.6763      9.8281      9.6510
H      7.3486      9.0178     11.0318
H      5.0610      6.9724      8.4006
H      6.2801     11.5839     10.4259
H      4.8183     11.0004     10.5129
C      7.1212      7.8810      8.4004
C      4.9635      7.6784      9.2878
H      6.4089      7.8827      7.4639
H      8.6741      8.1171      7.2181
H      5.2835      8.5035      8.5214
C      5.9411     10.6745     10.6995
H      3.9106      7.5584      9.7989
H      9.0078      8.8833      9.2563
H      7.4942      6.9195      8.3961
H      8.2094      9.8550      7.9154
C      8.2328      8.6510      8.3449
19

C      6.7073      9.5048     10.2167
C      6.2231      8.0953      9.7032
H      5.7105     11.2342     11.6990
H      7.3079      9.9148      9.4140
H      7.5381      9.3535     11.0371
H      4.9451      6.9684      8.6154
H      6.6528     11.5318     10.2822
H      4.8018     10.7751     10.6861
C      7.1359      8.0078      8.5610
C      4.8781      7.8379      9.2895
H      6.7551      8.3149      7.6958
H      8.7178      8.7535      7.6307
H      5.0946      8.7947      8.6793
C      5.9203     10.7860     10.5971
H      4.0021      8.2874     10.0997
H      8.8099      9.1918      9.2693
H      7.4706      6.9296      8.5525
H      7.6386      9.7541      8.1066
C      8.3548      8.7746      8.5140
19

C      6.6545      9.5915     10.3280
C      6.2131      8.1015      9.7604
H      6.0366     11.1556     11.6685
H      7.1910      9.6876      9.2426
H      7.4604      9.3608     11.0621
H      4.6591      6.9082      8.6596
H      6.9333     11.3354     10.2584
H      5.2411     11.0583      9.8529
C      7.0670      7.9592      8.5315
C      4.8337      7.9684      9.2769
H      6.6553      8.2232      7.6529
H      8.8113      8.5508      7.7891
H      5.1130      8.7362      8.5531
C      6.0151     10.8676     10.6163
H      4.0628      7.9231     10.0809
H      8.6206      8.9454      9.6791
H      7.3629      6.8524      8.5027
H      8.1856      9.9217      8.0267
C      8.3946      8.8439      8.6252
19

C      6.5539      9.5174     10.3137
C      6.1434      8.2511      9.8017
H      5.7046     11.3185     11.7598
H      7.1060      9.7899      9.4460
H      7.1190      9.0926     11.2007
H      4.9967      7.3182      8.3919
H      6.7053     11.5949     10.5181
H      5.1039     11.3559     10.1261
C      7.0995      8.0393      8.5654
C      4.8248      7.9903      9.1546
H      6.6540      8.3737      7.5277
H      8.8512      7.9273      8.1208
H      4.8466      8.7818      8.5237
C      6.0028     10.8972     10.6738
H      3.9339      8.3748      9.5632
H      8.9636      8.9735      9.5500
H      7.5776      6.8386      8.2797
H      8.0967      9.8791      8.4207
C      8.1611      8.7894      8.5413
19

C      6.6508      9.6225     10.2710
C      6.2404      8.2641      9.8422
H      5.8332     10.9755     11.7569
H      7.2382     10.1029      9.5505
H      7.4634      9.0162     10.8201
H      5.0258      7.3250      8.5789
H      6.4861     11.7050     10.3898
H      5.0850     11.4389     10.2803
C      7.0902      8.0755      8.5756
C      4.6353      8.0886      9.2238
H      6.5652      7.9752      7.6910
H      8.8729      8.2655      7.5070
H      4.8946      8.8589      8.5571
C      6.0918     10.8208     10.6827
H      4.2485      7.8769     10.3265
H      8.6366      8.6573      9.3843
H      7.3307      7.0350      8.3807
H      8.2944      9.9233      8.4527
C      8.2625      8.7458      8.4494
19

C      6.8397      9.5248     10.1850
C      6.2433      8.2143      9.6227
H      6.1699     10.9961     11.7451
H      7.7979      9.7777      9.6788
H      7.1968      9.0833     11.1758
H      4.2848      7.1529      8.7166
H      6.5339     11.7424     10.6913
H      5.1409     10.9697     10.1283
C      7.0333      7.9326      8.6118
C      4.6904      8.0571      9.2633
H      6.4506      8.5003      7.6343
H      8.4850      8.4117      7.4185
H      4.5010      8.8465      8.4635
C      5.9731     10.7698     10.7642
H      4.1725      8.1921     10.0952
H      8.9587      8.5755      9.3282
H      7.0403      6.8245      8.6928
H      8.4789      9.7756      8.3314
C      8.3012      8.7467      8.4875
19

C      7.0388      9.4243     10.6802
C      6.4985      8.1564      9.7375
H      5.5828     11.0559     11.1274
H      8.1050      9.5358     10.2042
H      7.1648      9.3498     11.8205
H      4.9553      7.2509      8.5921
H      7.0616     11.1901     10.6615
H      6.1585     10.6840      9.1918
C      7.0081      8.1100      8.3228
C      5.1190      7.8456      9.5755
H      6.0690      8.0574      7.7523
H      8.9397      8.7002      8.7320
H      4.4245      8.7736      9.5577
C      6.2316     10.6519     10.4422
H      4.4373      7.3452     10.4221
H      7.5235      9.8616      8.7714
H      7.6522      7.1040      8.0167
H      8.1827      9.3666      7.2952
C      8.0821      9.1648      8.3160
19

C      7.0995      9.4520     10.6267
C      6.4776      8.0691      9.8877
H      5.4384     10.7972     11.0702
H      8.1275      9.5866     10.1828
H      7.3064      9.5008     11.6306
H      4.9666      7.1291      8.6437
H      7.1287     11.1956     10.9985
H      5.9436     11.1152      9.5507
C      7.0373      8.1429      8.4210
C      5.0071      7.7183      9.5709
H      6.3767      8.8547      7.7300
H      8.8166      8.8884      8.7318
H      4.7150      8.7200      9.3517
C      6.3456     10.7670     10.4028
H      4.6640      7.4546     10.5677
H      7.6535      9.9569      8.6161
H      7.1475      7.1926      7.9652
H      8.4640      9.4053      7.1288
C      8.0674      9.0852      8.0878
19

C      7.0798      9.3547     10.5779
C      6.4303      8.0576      9.8692
H      5.5342     10.6476     10.9321
H      8.1500      9.5250     10.4115
H      6.8855      9.3745     11.5181
H      4.6189      6.9808      8.9922
H      7.4078     11.1957     10.6624
H      5.5602     10.9716      9.6097
C      6.9623      8.1816      8.3689
C      5.0054      7.7590      9.6194
H      6.1712      8.4816      7.6724
H      8.9333      8.9971      8.6879
H      4.4382      8.7823      9.3760
C      6.3608     10.7344     10.3782
H      4.6621      7.3966     10.6583
H      7.6566      9.9532      8.8452
H      7.0611      7.1564      8.0000
H      8.3577      9.5066      7.1857
C      8.0216      9.0695      8.0971
19

C      7.0368      9.4405     10.7025
C      6.4915      8.2566      9.8780
H      5.3527     10.5935     11.6400
H      7.8607      9.9077     10.2470
H      6.9531      8.7355     11.5225
H      4.9015      7.6453      8.9964
H      6.8332     11.4420     10.9266
H      5.9473     11.0558      9.9252
C      6.9820      8.3072      8.4059
C      4.9570      8.0921      9.9100
H      6.3235      8.7903      7.5254
H      8.7614      9.1135      9.0256
H      4.8365      9.1264      9.9853
C      6.1724     10.6086     10.7373
H      4.5589      7.6226     10.7720
H      7.8039     10.3991      8.7664
H      7.0893      7.2679      7.9997
H      8.0939      9.5038      7.2455
C      8.0970      9.1738      8.3350
19

C      6.8995      9.4334     10.6667
C      6.4048      8.0747      9.8360
H      5.3475     10.4074     11.5990
H      7.8872      9.5174     10.5673
H      7.0869      9.2202     11.8187
H      4.4955      7.4368      9.1005
H      6.5332     11.5108     11.2756
H      5.5481     10.7597      9.5716
C      6.9952      8.2446      8.3931
C      4.9872      8.0567      9.7670
H      6.0759      8.6545      7.8884
H      8.5578      9.1376      9.0033
H      4.5861      9.0412      9.4426
C      6.0936     10.7990     10.7903
H      4.3110      7.8156     10.5401
H      7.2669     10.0408      8.0581
H      7.4388      7.3222      7.9820
H      8.6291      9.1489      7.2662
C      8.0988      9.2726      8.1649
19

C      6.7742      9.4392     10.6910
C      6.4755      8.1660      9.8081
H      5.3914     10.3536     11.6866
H      7.7259      9.5601     10.1983
H      6.9438      9.5832     11.8124
H      4.6528      7.1518      8.9738
H      6.5570     11.4930     11.0045
H      5.1532     10.9692      9.7632
C      6.8742      8.1035      8.4087
C      4.8879      8.0125      9.6166
H      5.9490      8.1215      7.9996
H      8.6018      9.4437      8.9959
H      4.4599      8.8707      9.1619
C      6.0417     10.6939     10.7290
H      4.4816      8.0021     10.8362
H      7.7194     10.3314      7.8192
H      7.2097      7.2058      8.1044
H      8.7341      8.7277      7.3866
C      8.0829      9.3426      8.0595
19

C      6.9098      9.5559     10.6801
C      6.4697      8.1772      9.8275
H      5.5895     10.1842     11.6827
H      7.7936      9.8280     10.2257
H      7.0329      9.2546     11.7186
H      4.6050      7.3755      8.8799
H      6.5992     11.5761     10.7192
H      5.4783     10.5797      9.7133
C      6.8598      8.1586      8.3673
C      4.9064      8.0207      9.6873
H      5.7485      8.1881      7.7649
H      8.8370      9.3193      8.9409
H      4.4330      9.0358      9.4798
C      5.9695     10.6761     10.7242
H      4.3807      7.9426     10.5990
H      8.0298     10.4437      7.8584
H      7.2226      7.1377      8.1185
H      8.5019      9.1244      7.1998
C      8.0334      9.3885      8.1485
19

C      6.9680      9.6459     10.4409
C      6.3067      8.4509      9.8170
H      6.1615     11.1210     11.5940
H      7.6709      9.9918      9.7692
H      7.7226      9.6241     11.1959
H      4.7285      7.3129      8.8546
H      6.8123     11.4421     10.1548
H      5.3476     10.4491      9.8038
C      6.8670      8.2855      8.2392
C      4.8481      7.9771      9.7301
H      5.9848      8.3000      7.5132
H      8.7698      8.7394      8.8387
H      4.6283      8.8563      9.2089
C      5.9909     10.7819     10.6395
H      4.4030      7.6895     10.6630
H      7.7970     10.1323      7.7735
H      7.1734      7.3019      8.3732
H      8.8238      8.6209      7.1641
C      8.1278      9.0687      7.9836
19

C      6.9033      9.9156     10.5815
C      6.2164      8.6705      9.6264
H      5.7779     12.2623     10.4819
H      7.6353     10.5061      9.7387
H      6.9702     10.2695     11.5951
H      4.1636      8.6348      8.8289
H      5.1603     10.2838     10.6190
H      5.5262     10.9597     12.0170
C      6.7937      8.4604      8.3483
C      4.8433      8.3881      9.6095
H      6.4231      7.9113      7.6067
H      8.5827      9.0215      8.7799
H      4.2274      8.9154     10.2671
C      5.9541     11.1067     10.7189
H      4.3238      7.2705      9.7509
H      7.7129     10.3390      8.3476
H      7.4070      7.3408      8.4810
H      7.9081      9.5479      7.0286
C      7.8774      9.4002      8.1322
19

C      6.2017      9.9246     10.5783
C      5.9157      8.5680      9.8666
H      7.3069     11.3723      9.1180
H      6.9835      9.6044     11.2893
H      5.5090     10.2758     11.3380
H      4.4264      7.4734      9.2192
H      5.5481     11.8032      9.8471
H      6.5394     11.9273     10.8714
C      6.5459      8.4247      8.4562
C      4.5841      8.0927     10.0174
H      5.3372      8.7727      8.0291
H      8.4642      9.0259      7.7359
H      3.7052      8.7202     10.4378
C      6.5955     11.1817     10.1011
H      4.7986      7.3887     10.7007
H      8.1147      9.5897      9.4147
H      6.7262      7.1131      8.6004
H      7.2800     10.3491      8.2064
C      7.6288      9.4430      8.5307
19

C      6.2329      9.9305     10.6042
C      5.9339      8.6426      9.9844
H      6.9903     11.4781      9.1136
H      7.1362      9.6312     11.3200
H      5.1984     10.0080     11.3094
H      4.5217      7.7849      9.0573
H      5.6586     11.5043      9.7605
H      6.8433     11.8948     10.8580
C      6.4530      8.3332      8.5513
C      4.5745      8.1036     10.0094
H      5.5372      8.7469      8.3167
H      8.1691      8.9836      7.5518
H      3.5593      8.8908     10.1933
C      6.6479     11.2512     10.0227
H      4.4212      7.3176     11.0271
H      8.3689      9.3869      9.1792
H      6.3418      7.3684      8.1661
H      6.9578     10.2922      8.0727
C      7.5741      9.4014      8.3561
19

C      6.3577      9.8551     10.7117
C      6.0621      8.6948      9.9808
H      7.5432     11.1450      9.3375
H      6.9209      9.8316     11.6837
H      5.1146     10.0267     11.3074
H      4.5131      7.4136      9.2835
H      5.9176     11.8591      9.9423
H      6.7141     11.9511     10.8651
C      6.4892      8.4601      8.7636
C      4.6440      8.3167     10.0254
H      5.5936      8.7911      8.0719
H      7.9141      9.4372      7.0038
H      4.3325      9.2103      9.7914
C      6.7284     11.1852     10.1106
H      4.0344      7.9652     10.7795
H      8.4082      9.1306      8.7736
H      6.2071      7.3367      8.4107
H      7.0544     10.3199      8.0821
C      7.5011      9.2514      8.1011
19

C      6.4320      9.6675     10.9819
C      6.1313      8.5086     10.0951
H      7.4623     10.7864      9.5204
H      7.3840      9.4054     11.6892
H      5.4020      9.7936     11.5678
H      3.9588      7.8938      9.1658
H      5.9638     11.3484      9.4632
H      6.6811     11.6941     10.4936
C      6.5846      8.4731      8.5545
C      4.6459      8.5208      9.8969
H      5.6635      8.2475      8.0845
H      7.0536      8.8893      6.7994
H      4.4221      9.3953      9.3667
C      6.6745     10.8689     10.0672
H      4.0473      8.8730     10.8316
H      8.6425      8.5399      8.0170
H      6.6706      7.4318      8.3818
H      8.0570     10.0232      8.3930
C      7.7377      9.1077      7.9290
19

C      6.5678      9.6920     10.8967
C      6.1458      8.5256     10.0207
H      7.4494     10.7917      9.2787
H      7.0502      9.3737     11.6865
H      5.6478     10.0737     11.6628
H      4.2306      7.7207      9.3673
H      5.9247     10.9852      9.1936
H      6.9387     11.8505     10.4555
C      6.4877      8.4311      8.6605
C      4.5881      8.6352      9.9115
H      5.5877      8.6787      8.0472
H      7.0219      8.9841      7.2140
H      4.4123      9.7110      9.3016
C      6.6139     10.8449      9.9893
H      4.0817      9.0416     10.8421
H      8.5786      8.4362      7.9646
H      6.9229      7.4433      8.5299
H      8.0474     10.2078      8.1649
C      7.6938      9.0660      7.9352
19

C      6.4019      9.8399     10.8560
C      6.0563      8.5600     10.1088
H      7.2406     10.7999      9.2846
H      7.2168      9.9666     11.6057
H      5.5510      9.8601     11.4990
H      4.4328      7.7048      9.1990
H      5.7148     11.0623      9.4751
H      6.8398     11.8125     10.5725
C      6.5646      8.4600      8.6173
C      4.5909      8.5805      9.7018
H      5.5877      8.5530      7.8772
H      7.0701      9.4388      7.3193
H      4.5234      9.7527      9.0049
C      6.6049     10.9483     10.0098
H      4.0337      8.5256     10.7144
H      8.5329      8.2184      7.6575
H      6.6667      7.5858      8.5558
H      8.2179      9.9777      8.4687
C      7.6765      9.0594      8.0716
19

C      6.3538      9.8839     11.0523
C      6.0391      8.4525     10.3360
H      7.4341     10.8113      9.5776
H      7.3539      9.4398     11.4685
H      5.7574     10.4778     11.7779
H      4.5327      7.6334      9.1418
H      5.6404     11.3641      9.4271
H      7.0690     11.9166     10.4397
C      6.6178      8.4815      8.7277
C      4.7394      8.4609      9.7324
H      5.7417      8.4786      7.8416
H      7.2596      9.6052      7.3793
H      4.5288      9.5090      9.0414
C      6.5681     11.1025      9.9588
H      3.9681      8.3632     10.6372
H      8.3135      8.3164      7.2785
H      6.6181      7.5158      8.5948
H      8.2861      9.5096      8.7415
C      7.7102      8.9837      8.0721
19

C      6.3392      9.8248     10.8898
C      6.0370      8.5493     10.0812
H      7.1313     10.8071      9.2311
H      7.3135     10.1411     11.4141
H      5.7561     10.0820     11.6260
H      4.1167      7.6554      9.3865
H      5.7285     11.3930      9.4783
H      6.6173     12.0398     10.9986
C      6.5446      8.4702      8.7965
C      4.5149      8.4475      9.8064
H      5.9650      8.9559      7.8643
H      7.3450     10.1914      7.4469
H      5.1119      9.1387      9.0985
C      6.5143     11.1004     10.1542
H      3.7368      9.1663     10.3968
H      8.4541      8.2702      7.3598
H      6.3175      7.2832      8.7370
H      8.7028      9.7049      8.2667
C      7.8007      9.1730      8.0042
