6

H      9.3084      0.4802      3.0734
H      9.5612      1.9412      2.9679
H      9.6671     -1.2796      2.6207
O      8.8151      1.4803      3.2357
H     10.4242     -0.7181      4.0284
O      9.9413     -0.5371      3.1571
6

H      9.3356      0.4820      3.4016
H      9.1938      2.0587      2.4778
H      9.6314     -1.3436      2.9896
O      8.8938      1.7107      3.2353
H      9.9176     -0.7381      4.3183
O      9.8839     -0.4891      3.2639
6

H      1.4556      2.0877     11.1518
O     -0.4990      1.1982     12.4076
H      0.1141      0.4469     12.9902
H     -1.0808      1.9038     12.7248
O      0.6471      2.6695     11.0238
H      0.0228      1.8191     11.4467
6

O      8.7977     12.0780      2.8079
H      7.8465     11.7078      2.6943
H      9.5103     11.7756      2.1905
H     10.7167     12.5391      3.8750
H      9.4454     11.5788      3.6353
O     10.5483     11.5247      3.7721
6

O     12.8775     11.4768      4.0224
H     11.7520     11.5938      4.2912
H     13.1154     11.3277      3.0022
H     13.1880     11.0636      4.8563
H     10.0646     10.8198      4.5432
O     10.6445     11.4728      4.1036
6

O     12.7598     11.4335      3.8484
H     11.8286     12.0635      3.7636
H      9.9321     12.1276      4.0234
H     13.0734     11.5465      4.7735
H     10.4508     10.7641      3.2146
O     10.7022     11.4415      3.8836
6

H     14.1388      1.1952     10.9594
O     11.6903      1.1268     12.4839
H     10.7021      1.1182     12.4692
O     13.5062      1.8072     11.2701
H     12.6919      1.7230     11.8985
H     12.0977      0.3399     13.0044
6

H     11.1815      2.4432     10.1854
O     11.4455      1.7890     12.6684
H     11.2149      2.5569     11.9147
H     10.8507      3.8869     10.4938
H     10.6865      1.9806     13.0593
O     11.3519      3.1834     10.7895
6

H      0.2378     12.0111      6.9219
O      0.0771     11.8675      8.1566
H      0.5851     12.3931      5.2360
O      0.4443     11.6929      5.9904
H      0.1472     11.8938      9.2337
H      0.4028     11.0103      8.0857
6

H     -0.1092     12.0712      6.9510
O      0.0544     12.1011      8.0776
H      0.7356     12.8880      6.0161
O      0.6220     11.8358      5.9475
H     -0.1257     11.8452      9.2268
H     -0.0009     11.1679      7.9966
6

H     12.6936      5.1256     11.2060
H     11.2415      4.1888     12.3783
H     14.4799      4.8230     11.1950
O     11.9354      5.1914     12.0273
O     13.8047      4.8981     10.5891
H     11.4316      5.4725     11.2547
