9

O      2.5964     11.0903      7.0553
H      2.6806     11.7028      3.9388
H      3.2355     11.4933      8.0655
H      1.5374     11.5424      4.8229
H      4.1204      9.5999      4.3557
N      2.3967     11.9619      5.0394
N      5.2084      9.7602      6.5133
C      3.0285     11.0417      5.8451
C      4.4098     10.0916      5.4833
9

O      2.5623     11.0822      7.0521
H      2.6180     11.6708      3.9763
H      3.1923     11.5248      8.0686
H      1.5355     11.5528      4.8528
H      4.1307      9.6518      4.3874
N      2.4205     11.9468      5.0482
N      5.2225      9.7628      6.5397
C      3.0144     11.0149      5.8579
C      4.4024     10.1012      5.4759
9

O      2.5271     11.0712      7.0495
H      2.5656     11.6517      4.0325
H      3.1591     11.5615      8.0585
H      1.5074     11.5633      4.8901
H      4.1565      9.7196      4.4395
N      2.4449     11.9309      5.0530
N      5.2318      9.7676      6.5645
C      3.0045     10.9876      5.8717
C      4.3953     10.1141      5.4704
9

O      2.4914     11.0574      7.0476
H      2.5294     11.6414      4.0922
H      3.1372     11.6028      8.0336
H      1.4666     11.5818      4.9387
H      4.1936      9.7959      4.4975
N      2.4687     11.9147      5.0544
N      5.2354      9.7748      6.5876
C      2.9988     10.9603      5.8864
C      4.3889     10.1302      5.4687
9

O      2.4556     11.0409      7.0465
H      2.5124     11.6323      4.1324
H      3.1256     11.6470      7.9953
H      1.4282     11.6154      5.0003
H      4.2368      9.8706      4.5371
N      2.4904     11.8983      5.0540
N      5.2343      9.7845      6.6081
C      2.9969     10.9334      5.9017
C      4.3833     10.1498      5.4735
9

O      2.4205     11.0219      7.0461
H      2.5136     11.6172      4.1336
H      3.1214     11.6933      7.9478
H      1.4044     11.6668      5.0736
H      4.2817      9.9359      4.5347
N      2.5092     11.8824      5.0536
N      5.2308      9.7961      6.6253
C      2.9986     10.9076      5.9174
C      4.3787     10.1730      5.4873
