5

O      2.7350      4.0411      7.4517
O      1.6241      3.7826      9.1971
H     -0.0469      5.1129      8.1502
N      0.5861      4.7052      7.3630
C      1.6874      4.1694      8.0090
5

O      2.7489      3.9859      7.3804
O      1.5774      3.8089      9.2114
H     -0.0377      5.2142      7.9309
N      0.5027      4.6369      7.3388
C      1.6088      4.2064      8.0190
5

O      2.7553      3.9687      7.3583
O      1.5651      3.8147      9.2184
H     -0.0566      5.2516      7.8617
N      0.4802      4.6086      7.3305
C      1.5738      4.2220      8.0173
5

O      2.7603      3.9529      7.3384
O      1.5561      3.8189      9.2248
H     -0.0886      5.2937      7.7967
N      0.4601      4.5781      7.3215
C      1.5354      4.2381      8.0135
5

O      2.7635      3.9390      7.3203
O      1.5503      3.8217      9.2300
H     -0.1256      5.3312      7.7285
N      0.4413      4.5464      7.3118
C      1.4939      4.2539      8.0089
5

O      2.7647      3.9272      7.3027
O      1.5474      3.8236      9.2334
H     -0.1591      5.3526      7.6511
N      0.4222      4.5150      7.3014
C      1.4502      4.2685      8.0050
5

O      2.7637      3.9177      7.2845
O      1.5471      3.8250      9.2347
H     -0.1844      5.3508      7.5631
N      0.4016      4.4851      7.2898
C      1.4064      4.2802      8.0037
5

O      2.7604      3.9104      7.2658
O      1.5494      3.8261      9.2333
H     -0.2017      5.3254      7.4670
N      0.3787      4.4572      7.2765
C      1.3653      4.2879      8.0060
5

O      2.7546      3.9052      7.2479
O      1.5540      3.8272      9.2293
H     -0.2154      5.2828      7.3681
N      0.3533      4.4315      7.2612
C      1.3291      4.2908      8.0126
5

O      2.7467      3.9022      7.2322
O      1.5610      3.8285      9.2223
H     -0.2333      5.2336      7.2725
N      0.3262      4.4077      7.2438
C      1.2987      4.2889      8.0234
5

O      2.7373      3.9015      7.2194
O      1.5701      3.8299      9.2126
H     -0.2634      5.1894      7.1836
N      0.2985      4.3850      7.2251
C      1.2735      4.2824      8.0379
5

O      2.7267      3.9028      7.2094
O      1.5811      3.8316      9.2002
H     -0.3096      5.1566      7.1024
N      0.2714      4.3630      7.2063
C      1.2531      4.2717      8.0551
5

O      2.7152      3.9057      7.2018
O      1.5937      3.8335      9.1854
H     -0.3687      5.1325      7.0293
N      0.2457      4.3417      7.1883
C      1.2368      4.2573      8.0739
5

O      2.7030      3.9099      7.1961
O      1.6078      3.8357      9.1688
H     -0.4318      5.1084      6.9665
N      0.2217      4.3213      7.1721
C      1.2239      4.2400      8.0924
5

O      2.6903      3.9150      7.1916
O      1.6231      3.8380      9.1512
H     -0.4896      5.0752      6.9185
N      0.1994      4.3024      7.1580
C      1.2133      4.2205      8.1090
5

O      2.6774      3.9208      7.1877
O      1.6395      3.8403      9.1337
H     -0.5358      5.0276      6.8898
N      0.1792      4.2847      7.1466
C      1.2041      4.1996      8.1218
5

O      2.6645      3.9269      7.1835
O      1.6572      3.8422      9.1174
H     -0.5694      4.9654      6.8822
N      0.1615      4.2681      7.1381
C      1.1949      4.1782      8.1295
5

O      2.6517      3.9330      7.1786
O      1.6760      3.8436      9.1032
H     -0.5952      4.8948      6.8928
N      0.1472      4.2518      7.1328
C      1.1846      4.1570      8.1311
5

O      2.6385      3.9388      7.1723
O      1.6957      3.8445      9.0918
H     -0.6226      4.8270      6.9146
N      0.1376      4.2354      7.1304
C      1.1725      4.1364      8.1265
5

O      2.6237      3.9442      7.1639
O      1.7159      3.8450      9.0828
H     -0.6607      4.7728      6.9408
N      0.1335      4.2188      7.1311
C      1.1581      4.1165      8.1162
5

O      2.6057      3.9496      7.1533
O      1.7359      3.8451      9.0759
H     -0.7113      4.7355      6.9687
N      0.1350      4.2024      7.1347
C      1.1417      4.0971      8.1015
5

O      2.9921      6.6794      3.4084
O      2.8312      6.2108      1.2287
H      1.8256      4.6971      3.8160
N      1.4591      5.0935      2.9728
C      2.6238      5.8569      2.6595
5

O      2.9792      6.6782      3.4174
O      2.8176      6.2132      1.2440
H      1.7877      4.6756      3.7852
N      1.4669      5.1043      2.9775
C      2.6352      5.8408      2.6691
5

O      2.9688      6.6780      3.4284
O      2.8034      6.2142      1.2600
H      1.7483      4.6487      3.7820
N      1.4775      5.1147      2.9791
C      2.6433      5.8251      2.6744
5

O      2.9610      6.6787      3.4413
O      2.7886      6.2137      1.2762
H      1.7074      4.6157      3.8074
N      1.4906      5.1242      2.9776
C      2.6484      5.8105      2.6761
5

O      2.9557      6.6802      3.4556
O      2.7734      6.2117      1.2924
H      1.6624      4.5850      3.8489
N      1.5056      5.1317      2.9741
C      2.6508      5.7978      2.6747
5

O      2.9530      6.6822      3.4711
O      2.7580      6.2085      1.3087
H      1.6129      4.5689      3.8894
N      1.5222      5.1360      2.9699
C      2.6513      5.7879      2.6706
5

O      2.9528      6.6845      3.4874
O      2.7425      6.2042      1.3248
H      1.5621      4.5774      3.9161
N      1.5394      5.1361      2.9659
C      2.6505      5.7816      2.6644
5

O      2.9551      6.6867      3.5040
O      2.7269      6.1991      1.3408
H      1.5134      4.6140      3.9234
N      1.5562      5.1317      2.9624
C      2.6493      5.7799      2.6564
5

O      2.9596      6.6886      3.5208
O      2.7115      6.1934      1.3564
H      1.4728      4.6808      3.9116
N      1.5721      5.1227      2.9595
C      2.6485      5.7834      2.6475
5

O      2.9660      6.6900      3.5371
O      2.6966      6.1876      1.3712
H      1.4408      4.7709      3.8913
N      1.5865      5.1093      2.9564
C      2.6486      5.7928      2.6385
5

O      2.9743      6.6905      3.5528
O      2.6823      6.1818      1.3849
H      1.4138      4.8725      3.8810
N      1.5996      5.0920      2.9522
C      2.6496      5.8082      2.6306
5

O      2.9841      6.6900      3.5674
O      2.6688      6.1765      1.3968
H      1.3893      4.9810      3.8950
N      1.6118      5.0713      2.9461
C      2.6511      5.8293      2.6252
5

O      2.9952      6.6883      3.5806
O      2.6561      6.1719      1.4061
H      1.3667      5.0932      3.9315
N      1.6234      5.0477      2.9383
C      2.6526      5.8553      2.6235
5

O      3.0074      6.6855      3.5924
O      2.6442      6.1685      1.4121
H      1.3498      5.2046      3.9722
N      1.6347      5.0217      2.9304
C      2.6532      5.8851      2.6265
5

O      3.0207      6.6817      3.6027
O      2.6333      6.1664      1.4146
H      1.3429      5.3068      3.9978
N      1.6460      4.9946      2.9238
C      2.6524      5.9175      2.6346
5

O      3.0350      6.6773      3.6115
O      2.6231      6.1659      1.4136
H      1.3482      5.3907      3.9980
N      1.6574      4.9675      2.9193
C      2.6496      5.9511      2.6472
5

O      3.0499      6.6724      3.6192
O      2.6136      6.1669      1.4095
H      1.3651      5.4488      3.9712
N      1.6694      4.9417      2.9169
C      2.6445      5.9848      2.6632
5

O      3.0656      6.6675      3.6259
O      2.6047      6.1695      1.4031
H      1.3912      5.4759      3.9206
N      1.6823      4.9178      2.9167
C      2.6370      6.0178      2.6810
5

O      3.0817      6.6628      3.6322
O      2.5962      6.1737      1.3952
H      1.4235      5.4692      3.8534
N      1.6961      4.8965      2.9182
C      2.6273      6.0495      2.6987
5

O      3.0983      6.6586      3.6384
O      2.5881      6.1794      1.3866
H      1.4594      5.4307      3.7792
N      1.7111      4.8779      2.9207
C      2.6153      6.0794      2.7146
5

O      3.1152      6.6550      3.6449
O      2.5800      6.1865      1.3781
H      1.4949      5.3693      3.7159
N      1.7278      4.8616      2.9230
C      2.6012      6.1073      2.7275
5

O      3.1322      6.6519      3.6518
O      2.5718      6.1949      1.3704
H      1.5218      5.3006      3.6928
N      1.7468      4.8464      2.9228
C      2.5854      6.1332      2.7361
5

O      3.1493      6.6494      3.6592
O      2.5634      6.2047      1.3643
H      1.5340      5.2356      3.7322
N      1.7686      4.8317      2.9184
C      2.5684      6.1574      2.7400
5

O      3.1660      6.6473      3.6668
O      2.5546      6.2158      1.3602
H      1.5343      5.1677      3.8247
N      1.7928      4.8184      2.9107
C      2.5506      6.1801      2.7389
5

O      3.1820      6.6454      3.6742
O      2.5454      6.2281      1.3585
H      1.5311      5.0824      3.9369
N      1.8176      4.8084      2.9022
C      2.5328      6.2019      2.7328
5

O      3.1967      6.6435      3.6809
O      2.5358      6.2419      1.3595
H      1.5335      4.9762      4.0359
N      1.8409      4.8037      2.8956
C      2.5158      6.2231      2.7224
5

O      3.2096      6.6415      3.6862
O      2.5256      6.2572      1.3634
H      1.5468      4.8563      4.1020
N      1.8602      4.8060      2.8922
C      2.5000      6.2436      2.7086
5

O      3.2202      6.6394      3.6898
O      2.5148      6.2741      1.3701
H      1.5721      4.7330      4.1266
N      1.8734      4.8165      2.8927
C      2.4860      6.2634      2.6925
5

O      3.2280      6.6372      3.6912
O      2.5032      6.2926      1.3793
H      1.6080      4.6171      4.1071
N      1.8797      4.8353      2.8971
C      2.4741      6.2825      2.6751
5

O      3.2328      6.6351      3.6902
O      2.4908      6.3126      1.3905
H      1.6511      4.5190      4.0451
N      1.8795      4.8611      2.9057
C      2.4645      6.3006      2.6572
5

O      3.2346      6.6332      3.6869
O      2.4777      6.3342      1.4031
H      1.6966      4.4478      3.9458
N      1.8745      4.8917      2.9179
C      2.4572      6.3174      2.6400
5

O      3.2334      6.6316      3.6813
O      2.4638      6.3572      1.4161
H      1.7383      4.4079      3.8213
N      1.8669      4.9246      2.9324
C      2.4522      6.3328      2.6244
5

O      3.2298      6.6305      3.6735
O      2.4494      6.3816      1.4284
H      1.7654      4.3929      3.7015
N      1.8590      4.9579      2.9472
C      2.4492      6.3464      2.6114
5

O      3.2244      6.6301      3.6637
O      2.4346      6.4074      1.4386
H      1.7671      4.3819      3.6260
N      1.8525      4.9914      2.9592
C      2.4478      6.3581      2.6024
5

O      3.2177      6.6304      3.6520
O      2.4195      6.4345      1.4456
H      1.7392      4.3564      3.6147
N      1.8484      5.0252      2.9667
C      2.4478      6.3675      2.5989
5

O      3.2103      6.6318      3.6387
O      2.4042      6.4631      1.4485
H      1.6863      4.3245      3.6507
N      1.8467      5.0580      2.9706
C      2.4487      6.3745      2.6014
5

O      3.2026      6.6345      3.6243
O      2.3886      6.4930      1.4472
H      1.6183      4.3096      3.7036
N      1.8469      5.0880      2.9727
C      2.4503      6.3787      2.6097
5

O      3.1952      6.6389      3.6094
O      2.3727      6.5243      1.4421
H      1.5426      4.3284      3.7530
N      1.8478      5.1140      2.9742
C      2.4523      6.3802      2.6222
5

O      3.1886      6.6453      3.5946
O      2.3567      6.5565      1.4342
H      1.4675      4.3866      3.7877
N      1.8485      5.1354      2.9759
C      2.4540      6.3790      2.6371
5

O      3.1837      6.6539      3.5809
O      2.3406      6.5893      1.4246
H      1.4012      4.4838      3.8021
N      1.8484      5.1520      2.9778
C      2.4546      6.3757      2.6520
5

O      3.1809      6.6651      3.5689
O      2.3247      6.6221      1.4142
H      1.3485      4.6144      3.7965
N      1.8471      5.1638      2.9798
C      2.4534      6.3708      2.6647
5

O      3.1810      6.6790      3.5591
O      2.3093      6.6544      1.4039
H      1.3094      4.7670      3.7778
N      1.8446      5.1712      2.9811
C      2.4498      6.3648      2.6734
5

O      3.1840      6.6956      3.5514
O      2.2944      6.6857      1.3942
H      1.2773      4.9273      3.7600
N      1.8413      5.1746      2.9809
C      2.4436      6.3582      2.6773
5

O      3.1898      6.7146      3.5454
O      2.2801      6.7157      1.3853
H      1.2432      5.0846      3.7581
N      1.8380      5.1744      2.9778
C      2.4352      6.3520      2.6761
5

O      3.1976      6.7357      3.5405
O      2.2666      6.7441      1.3775
H      1.2044      5.2340      3.7755
N      1.8347      5.1706      2.9717
C      2.4251      6.3469      2.6702
5

O      3.2066      6.7583      3.5356
O      2.2538      6.7706      1.3711
H      1.1694      5.3710      3.8004
N      1.8306      5.1633      2.9636
C      2.4143      6.3440      2.6598
5

O      3.2160      6.7821      3.5303
O      2.2419      6.7950      1.3661
H      1.1485      5.4879      3.8180
N      1.8251      5.1531      2.9547
C      2.4035      6.3437      2.6453
5

O      3.2249      6.8065      3.5238
O      2.2310      6.8171      1.3628
H      1.1470      5.5783      3.8220
N      1.8180      5.1409      2.9458
C      2.3933      6.3464      2.6270
5

O      3.2325      6.8311      3.5158
O      2.2212      6.8369      1.3613
H      1.1654      5.6389      3.8132
N      1.8095      5.1277      2.9374
C      2.3843      6.3517      2.6048
5

O      3.2381      6.8553      3.5060
O      2.2126      6.8542      1.3617
H      1.2020      5.6672      3.7937
N      1.8002      5.1143      2.9297
C      2.3767      6.3593      2.5792
5

O      3.2412      6.8788      3.4943
O      2.2050      6.8693      1.3640
H      1.2542      5.6626      3.7664
N      1.7909      5.1015      2.9225
C      2.3706      6.3688      2.5505
5

O      3.2414      6.9013      3.4804
O      2.1984      6.8820      1.3679
H      1.3179      5.6278      3.7363
N      1.7826      5.0895      2.9157
C      2.3660      6.3798      2.5195
5

O      3.2385      6.9224      3.4647
O      2.1926      6.8926      1.3730
H      1.3866      5.5696      3.7127
N      1.7764      5.0779      2.9084
C      2.3629      6.3919      2.4871
5

O      3.2323      6.9421      3.4472
O      2.1873      6.9013      1.3786
H      1.4510      5.4985      3.7107
N      1.7732      5.0663      2.8996
C      2.3612      6.4045      2.4545
5

O      3.2228      6.9603      3.4281
O      2.1822      6.9086      1.3838
H      1.5038      5.4234      3.7454
N      1.7739      5.0539      2.8881
C      2.3611      6.4172      2.4232
5

O      3.2101      6.9771      3.4078
O      2.1768      6.9150      1.3871
H      1.5445      5.3461      3.8162
N      1.7784      5.0409      2.8741
C      2.3626      6.4290      2.3952
5

O      3.1943      6.9924      3.3865
O      2.1705      6.9214      1.3870
H      1.5778      5.2645      3.9018
N      1.7861      5.0278      2.8593
C      2.3660      6.4392      2.3728
5

O      3.1756      7.0062      3.3646
O      2.1631      6.9284      1.3824
H      1.6075      5.1786      3.9762
N      1.7961      5.0152      2.8454
C      2.3712      6.4471      2.3578
5

O      3.1539      7.0185      3.3427
O      2.1541      6.9360      1.3728
H      1.6349      5.0915      4.0213
N      1.8072      5.0037      2.8340
C      2.3782      6.4525      2.3507
5

O      3.1293      7.0291      3.3214
O      2.1435      6.9438      1.3590
H      1.6600      5.0066      4.0279
N      1.8184      4.9937      2.8256
C      2.3866      6.4559      2.3508
5

O      3.1021      7.0383      3.3009
O      2.1314      6.9508      1.3424
H      1.6826      4.9266      3.9930
N      1.8286      4.9858      2.8205
C      2.3955      6.4581      2.3562
5

O      3.0734      7.0462      3.2814
O      2.1181      6.9557      1.3249
H      1.7013      4.8546      3.9204
N      1.8369      4.9806      2.8187
C      2.4036      6.4599      2.3643
5

O      3.0442      7.0532      3.2629
O      2.1037      6.9572      1.3079
H      1.7143      4.7934      3.8224
N      1.8427      4.9781      2.8194
C      2.4100      6.4619      2.3729
5

O      3.0158      7.0597      3.2458
O      2.0885      6.9544      1.2924
H      1.7180      4.7421      3.7261
N      1.8462      4.9786      2.8208
C      2.4140      6.4644      2.3799
5

O      1.7010      6.6413      7.4910
O      1.1245      4.2788      7.5087
H      0.6144      4.9588      5.5286
N      1.4540      5.4705      5.4720
C      1.4312      5.6289      6.6539
5

O      1.6969      6.6418      7.4939
O      1.1196      4.2652      7.5183
H      0.6355      4.9001      5.5379
N      1.4493      5.4693      5.4616
C      1.4264      5.6505      6.6461
5

O      1.6959      6.6416      7.4943
O      1.1127      4.2550      7.5255
H      0.6523      4.8273      5.5310
N      1.4465      5.4666      5.4467
C      1.4239      5.6734      6.6465
5

O      1.6983      6.6407      7.4923
O      1.1043      4.2487      7.5299
H      0.6763      4.7525      5.5107
N      1.4451      5.4619      5.4285
C      1.4233      5.6964      6.6544
5

O      1.7042      6.6395      7.4879
O      1.0949      4.2462      7.5313
H      0.7165      4.6880      5.4794
N      1.4447      5.4551      5.4085
C      1.4244      5.7187      6.6678
5

O      1.7137      6.6382      7.4814
O      1.0846      4.2476      7.5292
H      0.7754      4.6414      5.4382
N      1.4452      5.4465      5.3888
C      1.4267      5.7392      6.6846
5

O      1.7264      6.6372      7.4732
O      1.0736      4.2529      7.5238
H      0.8471      4.6104      5.3867
N      1.4465      5.4368      5.3711
C      1.4299      5.7567      6.7026
5

O      1.7422      6.6370      7.4642
O      1.0620      4.2622      7.5155
H      0.9228      4.5868      5.3264
N      1.4494      5.4272      5.3567
C      1.4333      5.7699      6.7198
5

O      1.7609      6.6381      7.4553
O      1.0502      4.2759      7.5058
H      0.9949      4.5610      5.2609
N      1.4542      5.4186      5.3466
C      1.4364      5.7773      6.7343
5

O      1.7820      6.6409      7.4471
O      1.0388      4.2951      7.4970
H      1.0605      4.5277      5.1932
N      1.4612      5.4118      5.3414
C      1.4386      5.7775      6.7447
5

O      1.8053      6.6454      7.4399
O      1.0281      4.3204      7.4903
H      1.1215      4.4897      5.1259
N      1.4700      5.4067      5.3411
C      1.4396      5.7701      6.7508
5

O      1.8303      6.6511      7.4335
O      1.0180      4.3498      7.4844
H      1.1823      4.4562      5.0628
N      1.4802      5.4024      5.3453
C      1.4391      5.7558      6.7527
5

O      1.8563      6.6570      7.4274
O      1.0079      4.3810      7.4779
H      1.2466      4.4369      5.0081
N      1.4916      5.3981      5.3534
C      1.4375      5.7356      6.7513
5

O      1.8830      6.6625      7.4212
O      0.9979      4.4126      7.4703
H      1.3155      4.4359      4.9657
N      1.5042      5.3936      5.3649
C      1.4350      5.7106      6.7476
5

O      1.9097      6.6669      7.4144
O      0.9879      4.4438      7.4615
H      1.3875      4.4516      4.9377
N      1.5177      5.3887      5.3791
C      1.4322      5.6818      6.7426
5

O      1.9359      6.6698      7.4070
O      0.9779      4.4743      7.4518
H      1.4586      4.4780      4.9242
N      1.5320      5.3837      5.3954
C      1.4294      5.6504      6.7367
5

O      1.9614      6.6708      7.3987
O      0.9679      4.5036      7.4414
H      1.5246      4.5062      4.9225
N      1.5470      5.3789      5.4135
C      1.4273      5.6171      6.7303
