7

O      4.3089      3.7432     10.6214
O      2.7512      2.8764      9.2996
H      5.5850      2.3058      9.7761
H      1.9652      3.7304      9.0726
N      4.7628      1.9990      9.2692
C      3.8752      2.8304      9.7706
C      5.2540      1.1491      8.3335
7

O      4.2885      3.7545     10.6122
O      2.7434      2.8818      9.2899
H      5.5898      2.3395      9.8295
H      1.9397      3.7637      9.0754
N      4.7783      1.9858      9.2802
C      3.8896      2.8174      9.7770
C      5.2444      1.1110      8.3544
7

O      4.2682      3.7659     10.6020
O      2.7332      2.8880      9.2785
H      5.6007      2.3682      9.8903
H      1.9295      3.7832      9.0905
N      4.7978      1.9712      9.2907
C      3.9040      2.8089      9.7820
C      5.2327      1.0737      8.3746
7

O      4.2484      3.7772     10.5911
O      2.7215      2.8947      9.2657
H      5.6118      2.3852      9.9508
H      1.9347      3.7891      9.1173
N      4.8213      1.9561      9.3018
C      3.9176      2.8045      9.7850
C      5.2206      1.0376      8.3957
7

O      4.2292      3.7880     10.5794
O      2.7092      2.9013      9.2523
H      5.6198      2.3849     10.0051
H      1.9572      3.7817      9.1551
N      4.8485      1.9413      9.3144
C      3.9294      2.8044      9.7856
C      5.2099      1.0027      8.4194
7

O      4.2108      3.7980     10.5670
O      2.6968      2.9077      9.2384
H      5.6239      2.3638     10.0494
H      1.9999      3.7620      9.2030
N      4.8788      1.9271      9.3290
C      3.9390      2.8084      9.7836
C      5.2008      0.9693      8.4455
7

O      4.1934      3.8069     10.5537
O      2.6848      2.9132      9.2246
H      5.6251      2.3206     10.0811
H      2.0648      3.7337      9.2597
N      4.9114      1.9139      9.3457
C      3.9464      2.8164      9.7792
C      5.1923      0.9383      8.4725
7

O      4.1773      3.8145     10.5395
O      2.6741      2.9170      9.2111
H      5.6273      2.2564     10.1002
H      2.1475      3.7077      9.3240
N      4.9453      1.9016      9.3643
C      3.9516      2.8282      9.7723
C      5.1836      0.9109      8.4988
7

O      4.1625      3.8206     10.5246
O      2.6658      2.9176      9.1979
H      5.6372      2.1750     10.1108
H      2.2349      3.7038      9.3973
N      4.9794      1.8901      9.3838
C      3.9547      2.8430      9.7630
C      5.1744      0.8873      8.5235
7

O      4.1494      3.8253     10.5092
O      2.6605      2.9144      9.1850
H      5.6633      2.0821     10.1217
H      2.3150      3.7374      9.4829
N      5.0123      1.8794      9.4031
C      3.9557      2.8595      9.7511
C      5.1646      0.8678      8.5461
7

O      4.1383      3.8289     10.4939
O      2.6581      2.9079      9.1730
H      5.7110      1.9831     10.1422
H      2.3872      3.8004      9.5784
N      5.0429      1.8694      9.4212
C      3.9551      2.8762      9.7365
C      5.1541      0.8524      8.5663
7

O      4.1295      3.8317     10.4794
O      2.6584      2.8998      9.1626
H      5.7771      1.8813     10.1741
H      2.4537      3.8734      9.6759
N      5.0708      1.8598      9.4378
C      3.9530      2.8914      9.7187
C      5.1429      0.8408      8.5840
7

O      4.1234      3.8340     10.4665
O      2.6614      2.8913      9.1545
H      5.8499      1.7794     10.2104
H      2.5116      3.9477      9.7711
N      5.0964      1.8506      9.4531
C      3.9492      2.9038      9.6973
C      5.1310      0.8329      8.5992
