5

O      0.1879     10.1150     10.4774
O      0.8244      7.7690     10.5892
H      0.3480      8.9302     10.5242
H      1.4008      7.3683     11.2970
H     -0.0391     10.0711      9.4764
5

O      0.2033     10.1285     10.4695
O      0.8318      7.7599     10.5687
H      0.3344      8.8916     10.4774
H      1.3544      7.3462     11.2941
H     -0.1301     10.0783      9.4863
5

O      0.2176     10.1401     10.4604
O      0.8390      7.7524     10.5488
H      0.3367      8.8442     10.4386
H      1.3034      7.3328     11.2785
H     -0.2197     10.0921      9.5147
5

O      4.1554      4.9624      7.4778
O      2.5814      3.6014      6.5771
H      4.5281      4.3263      8.1609
H      4.3609      5.9642      7.4816
H      3.1735      4.2180      7.1792
5

O      4.1617      4.9843      7.5002
O      2.5838      3.6124      6.5499
H      4.5548      4.1931      8.2204
H      4.3206      5.9909      7.4721
H      3.1744      4.1649      7.1919
