9

O      7.4185      5.8167      3.9857
O      9.5031      2.0800      2.9793
H      6.7427      2.4342      2.3707
H      6.7804      6.7323      2.0545
H      8.5776      4.9810      2.1247
C      7.4953      4.6389      2.1416
C      8.7292      2.6334      2.2276
C      7.0605      5.8625      2.8081
C      7.4673      3.2585      2.5959
9

O      7.3875      5.8071      3.9594
O      9.4993      2.0974      2.9755
H      6.7693      2.4685      2.3531
H      6.8315      6.7271      2.0002
H      8.5425      5.0069      2.1781
C      7.5015      4.6502      2.1577
C      8.7417      2.6469      2.2147
C      7.0813      5.8370      2.8108
C      7.4596      3.2620      2.5926
9

O      7.3570      5.7984      3.9343
O      9.4940      2.1136      2.9700
H      6.7828      2.5050      2.3332
H      6.8853      6.6979      1.9712
H      8.5056      5.0263      2.2139
C      7.5070      4.6589      2.1728
C      8.7568      2.6607      2.2033
C      7.1013      5.8109      2.8109
C      7.4531      3.2664      2.5897
9

O      7.3272      5.7909      3.9131
O      9.4875      2.1285      2.9632
H      6.7767      2.5359      2.3096
H      6.9384      6.6474      1.9707
H      8.4770      5.0442      2.2333
C      7.5115      4.6628      2.1857
C      8.7736      2.6749      2.1927
C      7.1195      5.7856      2.8061
C      7.4486      3.2726      2.5873
9

O      7.2985      5.7847      3.8984
O      9.4804      2.1418      2.9555
H      6.7494      2.5582      2.2819
H      6.9879      6.5834      1.9974
H      8.4664      5.0633      2.2374
C      7.5153      4.6600      2.1950
C      8.7912      2.6894      2.1825
C      7.1348      5.7625      2.7949
C      7.4470      3.2806      2.5856
9

O      7.2709      5.7799      3.8917
O      9.4732      2.1531      2.9474
H      6.7065      2.5752      2.2530
H      7.0319      6.5183      2.0431
H      8.4773      5.0829      2.2265
C      7.5188      4.6494      2.1994
C      8.8084      2.7047      2.1723
C      7.1469      5.7426      2.7773
C      7.4480      3.2896      2.5848
9

O      7.2440      5.7765      3.8931
O      9.4662      2.1623      2.9390
H      6.6582      2.5936      2.2282
H      7.0690      6.4709      2.0912
H      8.5030      5.0983      2.2015
C      7.5230      4.6310      2.1978
C      8.8246      2.7208      2.1618
C      7.1557      5.7262      2.7553
C      7.4514      3.2984      2.5852
9

O      7.2178      5.7742      3.9013
O      9.4598      2.1691      2.9305
H      6.6148      2.6188      2.2129
H      7.0982      6.4629      2.1208
H      8.5314      5.1034      2.1634
C      7.5290      4.6061      2.1893
C      8.8392      2.7379      2.1511
C      7.1617      5.7125      2.7323
C      7.4569      3.3056      2.5869
9

O      7.1922      5.7725      3.9145
O      9.4541      2.1737      2.9220
H      6.5835      2.6530      2.2112
H      7.1202      6.5050      2.1202
H      8.5529      5.0945      2.1126
C      7.5375      4.5777      2.1738
C      8.8520      2.7559      2.1403
C      7.1653      5.7006      2.7114
C      7.4641      3.3094      2.5900
9

O      7.1672      5.7712      3.9304
O      9.4492      2.1760      2.9133
H      6.5679      2.6951      2.2249
H      7.1379      6.5827      2.0977
H      8.5611      5.0692      2.0495
C      7.5484      4.5496      2.1514
C      8.8628      2.7747      2.1298
C      7.1671      5.6908      2.6937
C      7.4732      3.3085      2.5946
9

O      7.1429      5.7698      3.9473
O      9.4451      2.1764      2.9043
H      6.5690      2.7415      2.2539
H      7.1536      6.6684      2.0694
H      8.5547      5.0270      1.9739
C      7.5612      4.5255      2.1226
C      8.8721      2.7933      2.1198
C      7.1673      5.6840      2.6793
C      7.4842      3.3016      2.6003
9

O      7.1196      5.7682      3.9639
O      9.4420      2.1752      2.8948
H      6.5833      2.7865      2.2961
H      7.1679      6.7406      2.0477
H      8.5367      4.9697      1.8847
C      7.5749      4.5081      2.0885
C      8.8800      2.8111      2.1101
C      7.1665      5.6804      2.6679
C      7.4968      3.2884      2.6053
9

O      7.0974      5.7663      3.9793
O      9.4399      2.1726      2.8848
H      6.6016      2.8225      2.3481
H      7.1804      6.7873      2.0395
H      8.5156      4.9011      1.7793
C      7.5883      4.4984      2.0508
C      8.8867      2.8273      2.1008
C      7.1651      5.6797      2.6597
C      7.5113      3.2700      2.6082
9

O      7.0767      5.7638      3.9927
O      9.4390      2.1688      2.8742
H      6.6106      2.8419      2.4055
H      7.1900      6.8026      2.0498
H      8.5031      4.8263      1.6541
C      7.5998      4.4962      2.0115
C      8.8924      2.8414      2.0918
C      7.1635      5.6814      2.6544
C      7.5285      3.2487      2.6089
9

O      7.0581      5.7610      4.0037
O      9.4395      2.1638      2.8630
H      6.6005      2.8400      2.4658
H      7.1959      6.7846      2.0810
H      8.5042      4.7495      1.5074
C      7.6083      4.5006      1.9725
C      8.8971      2.8528      2.0831
C      7.1622      5.6846      2.6518
C      7.5497      3.2272      2.6086
9

O      7.0418      5.7576      4.0122
O      9.4417      2.1576      2.8513
H      6.5730      2.8189      2.5289
H      7.1983      6.7363      2.1318
H      8.5101      4.6730      1.3437
C      7.6135      4.5105      1.9353
C      8.9010      2.8615      2.0747
C      7.1620      5.6884      2.6516
C      7.5749      3.2078      2.6076
9

O      7.0281      5.7537      4.0182
O      9.4459      2.1500      2.8391
H      6.5404      2.7849      2.5951
H      7.1986      6.6675      2.1946
H      8.5044      4.5982      1.1744
C      7.6164      4.5248      1.9006
C      8.9046      2.8672      2.0665
C      7.1634      5.6916      2.6532
C      7.6026      3.1922      2.6059
9

O      7.0174      5.7490      4.0220
O      9.4522      2.1407      2.8264
H      6.5156      2.7450      2.6633
H      7.1987      6.5999      2.2553
H      8.4754      4.5299      1.0136
C      7.6179      4.5427      1.8688
C      8.9084      2.8702      2.0587
C      7.1665      5.6923      2.6568
C      7.6309      3.1814      2.6033
9

O      7.0097      5.7434      4.0237
O      9.4608      2.1299      2.8133
H      6.5074      2.7044      2.7308
H      7.2002      6.5669      2.2952
H      8.4201      4.4746      0.8748
C      7.6189      4.5629      1.8403
C      8.9132      2.8703      2.0514
C      7.1716      5.6879      2.6627
C      7.6578      3.1761      2.5996
9

O      7.0050      5.7366      4.0236
O      9.4718      2.1176      2.7999
H      6.5205      2.6667      2.7937
H      7.2036      6.5895      2.3035
H      8.3412      4.4365      0.7687
C      7.6200      4.5844      1.8155
C      8.9197      2.8677      2.0447
C      7.1786      5.6770      2.6712
C      7.6819      3.1766      2.5950
9

O      7.0034      5.7284      4.0217
O      9.4849      2.1039      2.7863
H      6.5567      2.6347      2.8477
H      7.2087      6.6518      2.2847
H      8.2451      4.4178      0.7034
C      7.6217      4.6062      1.7949
C      8.9286      2.8625      2.0386
C      7.1875      5.6613      2.6813
C      7.7022      3.1833      2.5895
9

O      7.0047      5.7187      4.0182
O      9.5000      2.0887      2.7726
H      6.6152      2.6103      2.8881
H      7.2152      6.7204      2.2511
H      8.1403      4.4187      0.6839
C      7.6246      4.6271      1.7788
C      8.9400      2.8552      2.0330
C      7.1980      5.6442      2.6919
C      7.7181      3.1962      2.5829
9

O      7.0088      5.7077      4.0130
O      9.5171      2.0722      2.7591
H      6.6927      2.5953      2.9101
H      7.2233      6.7717      2.2122
H      8.0350      4.4382      0.7101
C      7.6289      4.6463      1.7675
C      8.9539      2.8464      2.0279
C      7.2099      5.6279      2.7020
C      7.7298      3.2149      2.5752
9

O      7.0154      5.6955      4.0060
O      9.5359      2.0543      2.7461
H      6.7841      2.5905      2.9091
H      7.2327      6.7947      2.1752
H      7.9387      4.4732      0.7729
C      7.6343      4.6630      1.7617
C      8.9699      2.8369      2.0232
C      7.2228      5.6138      2.7116
C      7.7377      3.2390      2.5659
9

O      7.0244      5.6823      3.9974
O      9.5561      2.0353      2.7338
H      6.8832      2.5951      2.8828
H      7.2429      6.7858      2.1462
H      7.8627      4.5177      0.8455
C      7.6403      4.6769      1.7631
C      8.9874      2.8274      2.0189
C      7.2364      5.6028      2.7205
C      7.7431      3.2677      2.5549
9

O      7.0354      5.6681      3.9871
O      9.5776      2.0153      2.7224
H      6.9798      2.6042      2.8310
H      7.2532      6.7453      2.1297
H      7.8167      4.5640      0.8812
C      7.6460      4.6883      1.7749
C      9.0062      2.8183      2.0154
C      7.2504      5.5955      2.7285
C      7.7474      3.3003      2.5419
