13

O      5.2501      2.0799     10.3791
O      2.5108     -0.2842      7.3251
O      3.5403      2.6646      9.1355
H      2.2003      1.2045      5.1668
H      3.9638     -0.8004      5.1819
H      2.8017      0.3316      3.7866
N      5.6046      3.0369      8.1495
N      2.8464      0.7221      4.6410
N      4.5220      0.9580      7.5212
C      3.9141      0.3189      5.3744
C      4.7607      2.4693      9.3965
C      5.2457      2.1168      7.3620
C      3.6233      0.1033      6.8249
13

O      5.2652      2.0749     10.3818
O      2.5297     -0.2965      7.3237
O      3.5394      2.6442      9.1455
H      2.1502      1.2246      5.0728
H      3.9482     -0.7812      5.2784
H      2.8171      0.3335      3.7616
N      5.6156      3.0535      8.1678
N      2.8484      0.7283      4.6473
N      4.4911      0.9689      7.5255
C      3.9182      0.3089      5.3851
C      4.7585      2.4464      9.3805
C      5.2639      2.1131      7.3658
C      3.6204      0.0809      6.8199
13

O      5.2800      2.0710     10.3830
O      2.5502     -0.3084      7.3210
O      3.5407      2.6314      9.1603
H      2.0786      1.2539      4.9854
H      3.9362     -0.7743      5.3659
H      2.8336      0.3304      3.7181
N      5.6278      3.0706      8.1932
N      2.8513      0.7348      4.6524
N      4.4615      0.9807      7.5333
C      3.9233      0.2952      5.3985
C      4.7587      2.4260      9.3642
C      5.2783      2.1028      7.3632
C      3.6184      0.0616      6.8153
