23

O      5.3412      2.2920      2.9788
O      9.2498     -1.1651      3.5924
O      7.9999     -0.7767      7.6654
O      7.1835     -0.4052      3.3525
H      8.9029      1.2597      7.2728
H      7.1827      2.1321      6.9653
H      7.3135     -0.8826      8.3048
H      5.6280      1.4087      4.8810
H     11.0284     -0.3954      4.6090
H      6.0119      0.4356      7.1983
H     10.3706     -1.1056      5.3424
H      8.9151      1.4916      5.2689
H      8.3597      3.3508      4.5268
H      6.4507      4.1378      1.8993
N      6.4016      4.3876      2.9410
C      9.8583     -0.4483      4.6952
C      6.3980      3.1332      3.5128
C      7.5268      0.0164      4.6891
C      8.8716      0.3493      5.3469
C      7.4487      2.4671      4.3253
C      6.8350      1.1497      6.6705
C      8.0771      0.4832      6.9076
C      6.7540      1.3338      5.0216
23

O      5.3541      2.2804      2.9917
O      9.2697     -1.1618      3.6029
O      7.9912     -0.7771      7.6633
O      7.2065     -0.3984      3.3723
H      8.8230      1.2596      7.3198
H      7.1517      2.1513      7.0451
H      7.2623     -0.9125      8.2432
H      5.6586      1.4106      4.9375
H     10.9781     -0.2935      4.6290
H      6.0724      0.4710      7.0580
H     10.4241     -1.0765      5.4024
H      8.8513      1.4733      5.2671
H      8.2471      3.3392      4.5354
H      6.4417      4.1099      1.8011
N      6.4167      4.3716      2.9557
C      9.8502     -0.4381      4.6926
C      6.4067      3.1106      3.5216
C      7.5406      0.0020      4.6750
C      8.8757      0.3525      5.3681
C      7.4534      2.4668      4.3104
C      6.8458      1.1528      6.6592
C      8.0730      0.4914      6.8877
C      6.7612      1.3323      5.0148
