26

O     10.4393     -1.5857      5.8290
O      5.8329      1.8885      2.4038
O      8.1011      4.8810      4.7332
O      6.4034     -1.3776      4.3783
O      8.3082      0.0849      7.5859
O      7.0837     -0.5053      2.5695
H      8.5142      3.9791      4.8393
H      9.6604      0.6203      5.6109
H      6.1305      0.8110      6.9018
H      7.7868     -1.1595      3.2357
H      7.1844      4.0333      1.9669
H      7.9377      6.0679      3.0323
H      8.0830     -0.8192      8.0697
H      5.7370     -1.8815      3.8960
H      5.7723      0.9313      2.6335
H     10.5083     -0.7156      6.4350
N      7.1573      3.7682      2.9291
C      9.5232     -1.5872      4.7816
C      6.3037      2.7816      3.3029
C      6.4660     -0.3063      3.7688
C      9.0732     -0.0826      4.9650
C      8.2009      4.9959      3.3134
C      6.1524      2.1672      4.5620
C      6.8323      0.4378      5.9814
C      8.0888     -0.1664      6.1678
C      6.5748      0.8373      4.6082
26

O     10.4392     -1.5874      5.8147
O      5.8280      1.8781      2.4070
O      8.1108      4.8623      4.7272
O      6.4045     -1.3805      4.3992
O      8.3198      0.0883      7.5901
O      7.0908     -0.5275      2.5838
H      8.6560      3.9661      4.8856
H      9.5844      0.6113      5.5727
H      6.1018      0.8375      6.8910
H      7.7421     -1.2177      3.2296
H      7.1236      3.9910      1.8700
H      7.9182      5.9970      3.0107
H      8.0089     -0.8007      8.0754
H      5.7124     -1.8575      3.9360
H      5.8201      0.9766      2.7385
H     10.4694     -0.7149      6.4940
N      7.1768      3.7651      2.9128
C      9.5066     -1.5995      4.7751
C      6.2941      2.7619      3.3170
C      6.4726     -0.3420      3.7798
C      9.0650     -0.0945      4.9682
C      8.2575      4.9999      3.3132
C      6.1511      2.1450      4.5751
C      6.7827      0.4393      5.9909
C      8.0935     -0.1511      6.1906
C      6.5476      0.8246      4.6053
26

O     10.4386     -1.5884      5.8001
O      5.8231      1.8691      2.4083
O      8.1209      4.8432      4.7203
O      6.4070     -1.3871      4.4240
O      8.3325      0.0899      7.5950
O      7.0984     -0.5479      2.5980
H      8.7909      3.9587      4.9372
H      9.5222      0.6150      5.5266
H      6.0920      0.8561      6.8676
H      7.6924     -1.2812      3.1908
H      7.0627      3.9366      1.7785
H      7.8995      5.9264      2.9883
H      7.9379     -0.7558      8.0660
H      5.6786     -1.8456      3.9766
H      5.8660      1.0168      2.8439
H     10.4196     -0.7481      6.5292
N      7.1947      3.7619      2.8941
C      9.4892     -1.6101      4.7716
C      6.2864      2.7429      3.3312
C      6.4796     -0.3706      3.7895
C      9.0514     -0.1116      4.9736
C      8.3142      5.0008      3.3139
C      6.1524      2.1293      4.5893
C      6.7370      0.4400      5.9998
C      8.0952     -0.1316      6.2124
C      6.5196      0.8093      4.6049
26

O     10.4377     -1.5885      5.7856
O      5.8184      1.8613      2.4083
O      8.1320      4.8235      4.7127
O      6.4106     -1.3982      4.4526
O      8.3462      0.0896      7.6003
O      7.1063     -0.5662      2.6115
H      8.9139      3.9549      4.9927
H      9.4844      0.6404      5.4819
H      6.0996      0.8668      6.8355
H      7.6413     -1.3477      3.1223
H      7.0071      3.8717      1.7126
H      7.8811      5.8657      2.9650
H      7.8703     -0.6884      8.0451
H      5.6345     -1.8432      4.0183
H      5.9081      1.0488      2.9457
H     10.3608     -0.8132      6.5382
N      7.2100      3.7577      2.8725
C      9.4713     -1.6191      4.7711
C      6.2813      2.7260      3.3447
C      6.4875     -0.3911      3.7976
C      9.0313     -0.1342      4.9798
C      8.3700      4.9982      3.3159
C      6.1560      2.1209      4.6044
C      6.6968      0.4393      6.0079
C      8.0930     -0.1079      6.2327
C      6.4910      0.7910      4.6071
26

O     10.4371     -1.5882      5.7715
O      5.8140      1.8540      2.4079
O      8.1441      4.8034      4.7044
O      6.4151     -1.4141      4.4843
O      8.3608      0.0881      7.6057
O      7.1138     -0.5817      2.6241
H      9.0212      3.9477      5.0504
H      9.4716      0.6867      5.4382
H      6.1187      0.8732      6.8026
H      7.5938     -1.4177      3.0316
H      6.9614      3.7999      1.6818
H      7.8634      5.8188      2.9411
H      7.8040     -0.6067      8.0185
H      5.5816     -1.8457      4.0622
H      5.9451      1.0787      3.0382
H     10.2964     -0.9032      6.5234
N      7.2217      3.7515      2.8475
C      9.4533     -1.6265      4.7735
C      6.2791      2.7117      3.3568
C      6.4965     -0.4038      3.8041
C      9.0047     -0.1618      4.9867
C      8.4237      4.9926      3.3195
C      6.1616      2.1196      4.6205
C      6.6637      0.4363      6.0147
C      8.0865     -0.0803      6.2510
C      6.4617      0.7697      4.6117
