3

C      6.7587      9.8263     10.3921
H      7.6254     10.4273     10.2918
H      7.6572      8.8814     10.5286
3

C      6.9284     10.0029     10.4807
H      7.8211     10.7053     10.7959
H      5.7834     10.2622     10.1415
3

C      6.7259     10.0272     10.6229
H      7.6495     10.2664     10.0501
H      6.4266     10.7879     10.0603
3

C      6.8109     10.0424     10.9216
H      7.8860     10.4788     11.2789
H      5.9790     10.6878     10.8705
3

H      5.7402     10.3740     12.8034
H      5.0891      9.1051     11.4259
C      6.0996      9.5972     12.0075
3

H      5.6771     10.3370     12.6262
H      5.2657      8.8851     11.7170
C      6.0497      9.3894     12.1414
3

H      5.8196     10.4923     12.8072
H      5.3853      8.6442     12.1273
C      6.0682      9.3767     12.3305
3

H      5.5384     10.2001     12.9897
H      5.2726      8.9721     12.1737
C      6.0728      9.5526     12.3397
3

C      3.8778      1.5640      0.3062
H      3.4605      1.4618     -0.7599
H      4.1017      2.4888      0.4158
3

C      3.8432      1.6158      0.3666
H      2.6430      1.6298      0.1306
H      4.0967      2.5034      0.4244
3

C     12.1998      3.8106      7.9053
H     11.9423      3.8005      8.8776
H     12.3510      4.7541      7.4255
3

C     12.3070      3.7264      7.8778
H     12.3240      3.8328      9.0248
H     12.0428      4.8881      7.7188
3

C     12.2481      3.7241      8.0459
H     12.6409      3.9655      9.0787
H     13.0316      4.5971      7.5836
3

H      8.7880      2.7147      9.5792
C      8.4184      3.5868      9.0017
H      7.3904      3.2197      8.8767
3

H      8.8433      2.7767      8.8216
C      8.2701      3.7606      9.0119
H      7.2382      3.4760      9.1115
3

C      8.2756      3.4602      8.8262
H      8.8737      4.2325      9.1164
H      7.4569      4.0848      8.9245
3

C      8.3003      3.3335      8.8254
H      9.0105      4.2058      8.9221
H      7.3532      3.9186      8.8750
3

C      0.4962      2.2833      1.1878
H      1.0675      1.2246      1.3212
H      0.5745      2.9692      0.2649
3

C      0.3269      2.2420      1.0627
H      1.0024      1.3360      1.1630
H      0.7053      2.9421      0.3189
3

C      0.2566      2.3977      0.7995
H      0.8362      1.6864      1.2333
H      0.3587      3.1575     -0.0258
3

C      0.1844      2.5231      0.7272
H      0.7873      1.7782      0.8156
H      0.5662      3.3720      0.2180
3

C      8.6681      2.9966     10.2259
H      9.1854      2.9640      9.2363
H      7.9780      3.9418     10.2049
3

C      8.4800      3.0336     10.2437
H      9.3049      3.2043      9.5498
H      7.6485      3.5334      9.8289
3

C      8.5695      3.1390     10.2751
H      9.4449      3.3826      9.7002
H      7.6699      3.4403      9.9202
