8

O      5.2802      1.0349     11.4964
H      6.6872      1.1938     13.5469
H      5.2578      0.0437     12.0981
C      6.5509      1.5404     11.7535
H      8.0967      0.3048     11.6347
N      7.3753      0.6892     10.9195
H      7.3053      0.5061      9.8471
O      7.2471      1.7315     13.0015
8

O      4.9441      0.8092     11.3854
H      6.0357      0.4284     13.6211
C      6.0625      1.6023     11.9401
H      7.6453      2.0813     12.0036
H      4.7152      0.4213     10.4175
N      7.2772      1.2593     11.5258
H      7.7365      0.9744     10.5347
O      5.7072      1.3737     13.2509
8

O      5.0863      0.9561     11.2107
H      6.3695      0.8138     13.3269
C      6.0352      1.6693     11.8221
H      8.1292      1.7659     12.0419
H      4.4870      0.6279     10.4641
N      7.3361      1.2763     11.5220
H      7.7946      0.8330     10.6430
O      5.5320      1.3289     13.2038
8

O      5.1291      0.8667     11.1455
H      6.4915      1.0438     13.4295
C      6.0805      1.6753     11.8108
H      8.0239      1.8809     11.8591
H      4.5639      0.5602     10.3898
N      7.3065      1.3036     11.4646
H      7.6809      0.9274     10.6330
O      5.5826      1.4138     13.2364
8

O      5.2059      0.8048     11.0994
H      6.3789      0.8743     13.6005
C      6.0939      1.6169     11.8052
H      8.5496      2.0430     11.7551
H      5.0858      0.8252     10.0264
N      7.4584      1.4934     11.4893
H      7.7289      1.1513     10.5713
O      5.5945      1.3918     13.1173
8

O      5.4089      0.6225     10.7870
H      6.3972      0.7235     14.2106
C      6.0442      1.6417     11.9120
H      8.0215      1.4242     12.2929
H      4.8502      1.0619     10.3042
N      7.2047      1.1416     11.7116
H      7.8611      0.9439     10.8412
O      5.7774      1.4379     13.4144
8

O      5.2571      0.6611     10.9615
H      6.2432      0.9563     13.8639
C      5.9246      1.7161     11.8381
H      7.7258      1.5546     12.4047
H      5.1315      0.9993     10.1494
N      7.1145      1.3289     11.6680
H      7.5275      1.2444     10.6651
O      5.7412      1.3903     13.3028
8

O      5.1463      0.6834     10.9468
H      6.6083      0.9859     13.2420
C      5.7538      1.4232     11.8791
H      7.8192      1.8491     12.3305
H      5.2838      0.7086      9.8956
N      7.2331      1.3499     11.6549
H      7.7891      1.6910     10.8485
O      5.6944      1.3748     13.1615
8

O      5.1611      0.7990     10.9015
H      6.8377      1.2383     13.6231
C      5.9924      1.3379     11.8592
H      7.8670      1.5597     12.3608
H      5.4528      0.8762      9.9452
N      7.2516      1.3170     11.4877
H      7.7313      1.5107     10.6607
O      5.8283      1.2696     13.1163
8

O      5.3173      0.8956     11.0063
H      6.4163      1.5269     13.9756
C      6.2026      1.1751     11.7553
H      8.1313      1.1290     12.0563
H      5.5738      1.4765     10.2476
N      7.4663      1.2756     11.2185
H      7.2165      0.8794     10.3604
O      6.0346      1.0855     13.0883
8

O      5.3271      0.9501     10.9851
H      6.1993      1.7356     13.8067
C      6.2451      1.2093     11.8278
H      8.3135      1.3399     11.8340
H      5.7859      1.9335     10.3578
N      7.5521      1.2347     11.2244
H      7.6782      0.6395     10.5006
O      6.0501      1.0747     13.1443
8

O      5.4035      0.9050     10.8238
H      6.0596      2.3442     13.4170
C      6.2158      1.2040     11.8694
H      8.1256      1.6066     12.0905
H      5.2551      2.0173     10.6263
N      7.3708      1.2419     11.4327
H      7.6879      0.8169     10.6234
O      6.0152      1.1851     13.1406
8

O      5.4635      0.5136     10.8771
H      5.0730     -0.4543     12.8316
C      6.1846      0.8472     11.7454
H      7.9772      2.2580     11.1414
N      7.1199      2.1032     11.6924
H      7.2951      2.4511     12.7130
H      5.5322      1.1572      9.7388
O      5.8124      0.2083     12.9227
