2

C      7.5886      1.3871     11.1446
N      7.0495      1.5370     12.1301
2

C      7.5531      1.4739     10.9609
N      7.0733      1.5464     12.1491
2

C      7.5804      1.3687     11.0568
N      7.1893      1.6303     12.0756
2

C      7.6131      1.0540     11.1984
N      6.6839      1.3217     11.9648
2

C      7.6295      1.0203     11.2545
N      6.7893      1.2852     11.9824
2

C      7.5148      0.9433     11.2791
N      6.7858      1.3636     12.0640
2

C      7.6685      1.3229     11.2100
N      6.6990      1.6871     11.8334
2

C      7.6210      1.4657     11.3042
N      6.7805      1.5916     11.8730
2

C      7.6892      1.1174     11.3759
N      6.6828      1.6794     11.7424
2

C      7.5318      1.2547     11.4056
N      6.5791      1.7437     11.4167
2

C      7.4537      1.1783     11.3753
N      6.4706      1.8138     11.4161
2

C      7.5051      1.1526     11.3804
N      6.4729      1.5621     11.5154
2

C      6.0447      1.0503     11.2607
N      6.7667      1.8096     11.9227
