5

O      5.1246      0.1947     10.8932
H      4.8343     -0.5811     11.2356
C      5.9414      0.7259     11.7824
N      6.7987      1.5477     11.6008
H      7.5562      1.2093     12.1848
5

O      5.1587      0.2666     10.9515
H      4.6403     -0.3674     11.5699
C      5.9327      0.8243     11.7633
N      6.8622      1.6492     11.4835
H      7.4773      1.2486     12.2180
5

O      5.1195      0.2031     10.8956
H      4.5113     -0.4881     11.1704
C      6.0343      0.6728     11.6994
N      6.8183      1.5296     11.4806
H      7.6860      1.3802     12.0588
5

O      5.1086      0.1964     10.8012
H      4.8657     -0.7507     11.2505
C      6.1387      0.6647     11.5925
N      6.9611      1.5193     11.4124
H      7.6428      1.0043     12.1031
5

O      5.0675      0.2283     10.8112
H      4.7520     -0.3868     11.4295
C      6.0961      0.5769     11.5782
N      7.0470      1.4206     11.3617
H      7.6646      1.0392     12.0192
5

O      5.0812      0.2137     10.8752
H      4.4041     -0.2892     11.5389
C      6.0590      0.5523     11.6380
N      7.0047      1.4520     11.3573
H      8.0530      1.2346     11.8368
5

O      5.1020      0.2092     10.7677
H      5.6822      0.2078     10.0853
C      6.0623      0.7567     11.5401
N      6.9530      1.5914     11.0707
H      7.6182      1.7153     11.7819
5

O      5.0988      0.2008     10.9413
H      5.7933      0.4066     10.2265
C      6.2278      0.6485     11.7389
N      6.9245      1.4477     11.1329
H      7.6566      1.7921     11.9494
5

O      5.0784      0.3011     11.3287
H      5.0461      0.1490     10.1788
C      6.3919      0.3627     11.9732
N      7.0361      1.3039     11.3625
H      7.9763      1.6298     11.7438
5

O      5.2069      0.1504     11.3586
H      5.2002      0.6842     10.3392
C      6.3729      0.4220     11.9777
N      7.1834      1.0912     11.2178
H      7.9549      1.5396     11.7784
5

O      5.1560      0.1665     11.4048
H      4.8757      1.0999     10.6944
C      6.4043      0.4893     12.0502
N      7.1543      1.0881     11.2384
H      7.4709      1.4754     12.3030
5

O      5.1228      0.1434     11.4643
H      4.8422      0.6913     10.8398
C      6.2678      0.4981     11.9511
N      7.1881      1.1165     11.3482
H      7.6948      1.6689     12.1307
5

O      5.0908      0.1611     11.5029
H      4.9378      0.8027     10.7288
C      6.1830      0.4226     12.0351
N      7.1529      0.9785     11.4131
H      7.7082      1.5785     12.3187
5

O      5.0189      0.2218     11.4108
H      5.2023      1.1525     11.0272
C      6.2910      0.4520     12.0519
N      7.2420      1.1756     11.5287
H      7.9270      1.5495     12.5484
5

O      4.8113      0.0526     11.3415
H      4.9901     -0.2261     10.3877
C      5.9979      0.2638     11.7430
N      6.8484      1.2521     11.5046
H      7.7433      1.6104     11.9152
5

O      4.7041      0.1131     11.2102
H      4.7833      0.0882     10.2641
C      6.0601      0.1157     11.8059
N      6.9155      1.0694     11.5060
H      7.7383      1.3521     12.0422
5

O      4.7298      0.2119     11.0196
H      4.6172      0.5110     10.0128
C      6.0050      0.2234     11.9948
N      6.9657      0.7869     11.4122
H      7.6967      0.8907     12.0590
5

O      5.3992      0.6779     11.1503
H      5.1259     -0.3315     11.1652
C      6.7435      0.7478     11.4379
N      8.0861      1.0688     10.9971
H      8.5514      1.4565     11.9342
5

O      5.4383      0.6843     11.1635
H      4.9858     -0.3731     11.3894
C      6.8225      0.6898     11.3767
N      7.9240      1.1478     10.8943
H      8.5422      1.3618     11.9021
5

O      5.3689      0.6462     11.1953
H      5.0577     -0.2832     11.6193
C      6.8517      0.6988     11.4112
N      7.7822      1.2554     10.8286
H      8.4114      0.7920     11.6332
5

O      5.4337      0.7498     11.2348
H      4.7473      0.2007     11.5857
C      6.8766      0.6800     11.4409
N      7.7438      1.1392     10.7376
H      8.4235      1.0986     11.4874
5

O      5.1400      0.9956     11.5914
H      5.1468      0.2002     12.1595
C      6.8271      1.5057     11.8480
N      7.7603      0.8067     11.0359
H      7.0806      0.6747     10.1367
5

O      5.2893      0.9628     11.6351
H      5.0676      0.4060     12.2934
C      6.9830      1.5132     11.8550
N      7.6592      0.8254     10.8160
H      6.8997      0.6473     10.2393
