3

C     10.1302     -0.1955     10.9576
O      9.2695      0.5399     10.6463
H     11.1862     -0.2560     10.5398
3

C     10.2033     -0.3332     10.8093
O      9.3201      0.4802     10.6537
H     11.2186     -0.2111     10.3970
3

C     10.2823     -0.3820     10.8025
O      9.5013      0.3650     10.5562
H     11.4652     -0.3120     10.6678
3

C     10.3987     -0.2942     10.7024
O      9.5387      0.4632     10.5566
H     11.4028     -0.7568     10.5518
3

C     10.4349     -0.1798     10.5792
O      9.4194      0.3669     10.5138
H     11.5211     -0.5693     11.0248
3

C     10.4780     -0.1449     10.5174
O      9.4671      0.3087     10.4228
H     11.6089     -0.2963     11.1643
3

O      9.2016     11.9743      1.6135
C      9.0914     13.2128      1.0531
H      8.0650     13.6561      1.0397
3

O     11.0175      2.0761      1.9795
C     11.9776      2.7851      1.6799
H     11.8869      3.9265      0.8924
3

O     11.0092      2.1816      2.0124
C     12.0288      2.7332      1.5452
H     11.7392      3.7443      0.8957
3

O     11.0533      2.0458      2.0918
C     11.9792      2.6731      1.5769
H     12.1712      3.8923      1.3854
3

O     11.1492      2.0659      2.1339
C     12.0007      2.7131      1.6843
H     11.8518      3.9161      1.6067
3

O     11.2882      1.8687      2.0409
C     12.1437      2.8570      1.7211
H     11.7659      3.7948      1.6802
3

O     11.3736      1.7727      2.0420
C     12.1238      2.8453      1.7360
H     11.8669      3.9210      1.9716
