5

O      9.0321     11.9210      1.6751
C      9.2318     13.1739      0.9728
H      8.2183     13.7225      1.0010
H     10.1182     13.7358      1.5098
H      9.0520     11.5224      0.7046
5

O      9.0034     11.9285      1.6932
C      9.2807     13.1136      0.8358
H      8.1839     13.5849      1.0172
H      9.9359     13.9046      1.3407
H      8.9171     11.5059      0.8533
5

O      9.0197     11.8959      1.6342
C      9.1824     13.1269      0.8169
H      8.4135     13.8295      1.0170
H     10.0638     13.4567      1.3492
H      9.1118     11.1324      0.9365
5

O      8.9466     11.9766      1.5993
C      9.2716     13.1353      0.8008
H      8.3016     13.6687      1.2058
H     10.0996     13.4972      1.5431
H      8.9370     11.4109      0.6326
5

O      8.8510     11.9978      1.5670
C      9.1883     13.1873      0.6985
H      8.1710     13.5153      0.8744
H     10.0488     13.4509      1.3264
H      8.5088     11.5265      0.8303
5

O      8.0326     -0.4152      1.3703
C      8.8657      0.4850      0.7383
H      8.3673      1.3818      0.3885
H      9.7265      1.0027      1.0521
H      8.3402     -0.3694      2.4487
5

O      7.7923     12.4200      1.1926
C      8.8709     13.1646      0.4955
H      8.6229     14.0984      0.0561
H     10.0012     13.0606      1.2568
H      8.1776     12.4688      2.1663
5

O      7.9682     12.5921      1.0678
C      9.0578     13.0725      0.5124
H      8.9640     14.3626      0.0760
H      9.7926     13.6082      1.3153
H      7.5513     12.7006      2.0767
