241

C     19.4013      9.0849     13.8044
C      4.0958      1.6186      7.0408
C      3.1052      3.3146      1.0916
C      6.7544      5.2433      3.0512
H     -2.9277      3.4295      2.5414
C      7.4639      3.9736      2.8819
C      3.2246      4.2232      5.6323
C     16.0497      7.4478     19.4341
C      6.0309      2.0327      4.1831
C     13.8301      8.4632     13.7058
N     -0.0123      3.0414      6.0932
C     13.5595     -6.9366      0.3491
C      3.0471      4.2721      7.1013
H     13.5903     -7.2459     -0.7529
C     15.7782      6.1654     17.4992
C     16.6411     10.9634     16.3999
H      1.4096      0.0376      9.4881
H     -2.2541      2.7180      5.3627
H      5.9104      5.2280      3.8797
C     16.7132      9.6555     16.2736
H      8.2299      3.7957      3.6016
H     12.3877      6.9188     10.5632
H     -0.7434      5.3190      6.5980
C      2.9629      2.7671      7.3791
H      9.3113     -2.8490      0.3817
H      6.8435      1.6345      4.6324
C      8.2614      0.5408      8.1298
H     16.0138     -7.9120      0.2073
C      6.9996      5.8592     10.1054
H     14.1278     -6.6538      9.0820
C      6.4291      2.5502      2.8704
H      6.5432      5.1041      7.5177
H      5.2853     -2.8935      7.8053
C     17.1232     11.1507     17.7863
C      9.8966     -4.4346      5.3958
O     14.7626     -4.5257      4.6363
C     11.3760     -5.5711      7.1649
C      8.7786      8.3995     12.3636
C     20.3581      7.9629     13.2052
C      6.4693      7.1663     -0.5503
H      5.4315      4.1866      1.6087
H     17.0303      9.8936     14.1436
H      1.4933     -0.1169      3.1128
H      7.8945     -7.2227      8.4113
C      7.2504      6.7218     11.1405
C      7.5735      6.3501      3.6452
H     20.7222      9.8864     15.1216
C     -1.2093      6.3921      4.9752
H     15.5525      8.6627     20.9771
H      4.3041      0.4630      2.5831
H      3.8276      7.0936     -0.2930
C      9.8708     -1.0330      6.8708
C      5.7555      5.1139      9.4975
C     15.9580      7.6215     17.8721
C      4.4546      6.3315      0.3722
C     17.3488      9.5077     15.0188
H      9.2245     -5.1562      5.9766
H      8.4944      8.6781      2.9597
H      3.8255      0.9331     10.1539
H      7.6312      0.0130      9.6721
H     18.2690     12.9069     17.4800
C     -0.2169      3.3633      8.4268
C     13.2337      8.0086     12.3688
C      1.5708      2.0698      7.0343
C     12.4923     -6.4949      1.4151
H      5.5317      7.3345     -1.0293
H     -3.3634      3.6582      4.4411
H      6.3135      4.6616      6.2388
C     10.0014      7.7126     12.9413
C     16.3445      8.6599     20.3056
C      3.4275      1.0116      9.2311
C      3.3215      1.9199      4.6843
H     10.6607     -2.1803      1.5081
H     18.8601     12.1237     18.9969
C      4.1495      3.5140      3.1789
H      8.7021     -2.9792      5.8336
C     10.7482     -4.3329      0.9313
C     10.9835      7.0507     11.9345
H     10.7345     -2.8834      7.1846
C      5.5876      3.0360      5.1738
H     17.2823     12.9165     18.8089
H      8.1853      3.5519      2.1042
H      8.2103      1.1467      7.3389
C      2.8932     -0.7592      7.8812
C      5.2989     -1.6860      8.1752
C     -1.8033      4.9439      3.1928
C     16.0529      9.6488     19.3000
C      3.0469      3.7877      2.3335
H      2.3338     -1.5797      7.6579
H     15.9843      8.6823     14.4223
H     -1.9246      4.4436      1.2210
H     14.6160     -8.8801     -0.8521
O      5.3795      7.0762      6.8419
C     13.4913     -5.1660      4.4477
H     16.5767     10.5139     20.0223
C     10.1415     -4.5073      3.8546
C     10.9843     -5.3105      3.0388
C     10.2764     -5.1013      7.7755
H      1.7314      2.6262      5.0153
H     14.3214      7.4439     10.5063
H      6.4245      2.0358      1.8260
H     -1.1797      3.1814      8.4690
C      3.6472      2.1330      0.8785
C     12.9866     -4.4381      2.3360
C      0.1265      3.9306      3.8155
C      7.4526     -1.6486      7.4059
H      1.9202      0.2523      4.5256
H     10.8580     -4.1222      7.5736
H     14.7906      9.5811     18.9474
H     15.4877      6.9492     13.5017
O     13.3251     -3.7857      6.2251
C      6.5145     -0.9681      8.2381
C     13.6338     -6.2898      6.8308
C     15.2370      7.8530     13.8621
H     15.7887      8.0215     15.7879
C     13.7550     -5.4443      3.0398
H      9.0953      0.8721      8.8841
C      2.5698      1.4308      3.3360
C      0.4898      2.7988      7.2016
C     10.4685     -2.2197      6.4314
C     -2.5197      2.8192      4.4457
C     17.8778     12.1749     18.1929
C      3.3721      3.3405      9.8732
C     11.7664     -5.0745      1.8385
C      4.2918     -0.6572      8.1601
N      2.3015     -0.0113      3.6587
H      2.3258      0.5570      0.0904
C      3.3324      1.0531     -0.1378
O     17.2754      6.0913     15.7335
C      9.3311      6.6641      1.1931
H     18.2513      9.3304     18.8410
H      1.9526      1.3603      7.8661
C     -2.5947      4.5394      2.1843
C     10.2146     -5.2391      9.2264
H      1.2409      1.2893      6.3682
H      7.4591      5.3466      0.8535
C     10.1646     -3.0795      1.0383
H     15.8768     -6.2970      9.1442
H     -2.5850      4.8281      6.0540
H     12.3088     -3.2933      4.9008
H     14.0959      9.1896     11.1955
H      4.1733      0.3764     -0.3215
H     -0.1530      4.4960      8.4332
C     14.9832      7.3368     15.3165
H      4.7527      5.2710      9.9032
C     14.3047      8.1495     11.3855
H      3.7600      2.8904     10.7353
H     16.9068     11.6352     15.6602
C      4.0702      8.6874      4.4932
C      7.6458      7.7190      3.1043
C     20.1689     10.2604     14.3201
C     18.3053      8.4709     14.6864
C      4.1005      6.4912      6.6947
C      2.0486      4.7982      2.4860
C      5.7176      6.5709      0.6274
C      5.3752      8.0565      4.2752
C      7.8073      6.9872      1.5931
C      3.9226      5.2465      7.6165
C     14.4484     -7.8617      0.9531
H      8.9501      5.0506      3.9293
C      5.9933      7.2574      5.5165
C      6.7767      5.8640      1.5707
H     -0.0279      3.2053      2.9134
H     11.2053     -5.9500      9.4001
O      7.2631      7.3103      5.9837
H      8.6146      9.4009     11.9514
H      1.5021      2.2056      3.1428
H     12.8970     -3.7262      3.0536
H      3.4991      5.8179      1.0964
H      5.0840      5.6792      4.6831
C     12.2791      7.3608     11.5678
C     15.8902      6.1250     15.8611
H     14.5661     -5.1422      8.5215
C     -1.4186      4.1424      4.3559
C      0.4172      6.4786      5.3294
H      2.6222      0.2189      5.7993
C      1.5604      5.4829      4.7556
H      2.7855      0.5781      1.6737
H     12.9156     -6.1600      8.5875
C      8.3002     -7.2340      9.3567
C      4.5264      0.7773      8.2247
O      6.2995      4.2702      5.2793
C      6.1034      8.0282      3.0334
C      9.7886     -2.9673      5.3907
C     12.8417     -6.5261      2.7979
C     -1.4592      6.3741      3.6219
H     17.3451      8.5432     20.2493
H     15.2455      8.0346     12.0935
H     -2.3373      2.1630      3.4924
C      2.4010      0.1937      8.7853
C      0.7540      5.1195      3.2614
C      5.2516      3.3279      2.5410
H     14.1968     -8.5606      7.9385
H     10.5780     -0.9374      7.8016
H      7.0917     -2.2546      6.4149
C     14.9412     -6.2578      8.6174
C     -1.5655      5.1305      5.6469
C      3.6092      1.1799      2.0785
C      1.8186      4.4900      5.6149
C     14.9543     -6.4180      7.1287
C     15.2188     -8.6934      0.1269
H     11.5678     -7.0197      1.2200
H      4.8550      2.1909      0.4665
H      3.3355      1.4870     -1.1501
H     11.4056     -2.0915      6.1551
H      5.0032      1.5832      3.5204
C     12.6200     -4.3023      5.2376
C      9.1550     -6.0780      9.6996
H     17.7527      5.1917     15.5385
H     20.8708     11.0676     14.4842
C      8.6814     -0.8040      7.5231
H     10.0942      6.7231      1.9955
H     10.1409     -2.2933      4.4719
H      5.9024      2.2570      9.1887
C     12.5898     -6.0749      7.6075
C      0.8626      3.3131      5.0039
O      8.8440      5.9257      4.3649
C     11.3670     -5.0863      5.7426
C      6.4036      2.0340      7.2443
C      5.3373      2.2621      6.4493
C      3.2303      1.1363      5.7740
H      5.2767      3.7729      7.7778
H     13.2918     -2.9659      5.7309
C     14.6333     -8.1463      6.9980
C      3.9213      5.6068      5.3646
C      3.0871      2.4773      8.8844
H     19.1974     11.0564     14.6330
C      8.6040      7.4150     11.0203
H      3.5906      5.6515      8.7395
H     10.3441      6.4678     11.5054
H      7.2706      2.5766      6.9184
C      4.0210      3.1592      4.6509
C     17.2055      9.7959     18.3682
C      6.9730      0.2410      8.8411
C      5.5348      4.7874      8.2073
C      5.9009      1.4816      8.5200
H      0.7063      2.9358      9.1236
H     10.7808     -4.3141      9.7705
H     18.6962      9.3517     12.9517
H      3.2288      4.3635      9.8002
H      9.4414     -3.7235      3.4033
