241

C     19.5575      9.2139      0.8404
C     17.0713      1.8602      6.9173
C     15.8825      3.1440      1.3127
C      7.1011      5.2092     15.5943
H      9.9088      3.2346      2.4229
C      7.5779      3.7802     15.6317
C     16.0703      4.1960      5.4756
C     16.0949      7.2048      6.6306
C      6.1718      2.0891     17.1921
C     13.8896      8.6931      1.0115
N     12.7040      3.3819      6.1500
C     13.4387      6.0386     13.4869
C     16.3249      3.9372      7.0736
H     13.4134      6.3959     12.4272
C     15.7257      6.0852      4.4243
C     17.0422     10.5802      3.4979
H      1.3325      0.3702     21.8952
H     10.7434      2.1174      5.4884
H      5.9440      5.1370     15.8743
C     16.6888      9.1021      3.2337
H      8.2113      3.9090     16.8382
H     12.4435      6.8813     10.7140
C     15.8718      2.6860      7.5798
H      9.8269     10.0467     13.3514
H      7.1981      2.0278     17.6996
O     14.7144     10.9438      1.7626
C      8.4170      0.6361     21.1585
H     15.5026      4.7825     12.5550
C      6.8271      6.1696      9.7412
H     14.2214      6.0568      9.0912
C      6.2981      2.5873     15.8076
H      6.2186      5.8941     20.8086
H      5.3517     -2.3886     20.9045
C     17.3364     10.7817      4.6730
C     10.0771      8.2799     18.1793
O     14.8645      8.4992      4.8852
C     11.5059      7.4161      7.0732
C      8.8108      8.3068     12.2964
C     20.2418      8.2023      0.0777
C      6.4294      7.1799     12.1932
H      5.0942      4.2155     14.9536
H     16.9693      9.5919      1.3565
H     14.5242     -0.5994      3.0657
H      8.9633      5.2661      8.9878
C      7.0804      6.6419     11.0768
C      8.0888      6.2341     16.4495
H     21.3938     10.4167      1.0303
C     11.7917      6.1680      5.1633
H     15.2956      8.4114      8.1015
H     17.4875      1.1656      3.1207
H      4.2740      6.6936     14.2238
C      9.7258     -1.4118     20.3583
C      5.4538      5.7744     22.3534
C     15.7722      7.5367      5.0774
C      4.5220      5.9291     13.2289
C     17.4871      8.9965      2.1306
H      8.3147      8.6620     15.3996
H      3.4959      0.9426     23.2772
H      7.3591      0.6297     23.0462
H     18.1170     12.7627      4.0210
C     12.5330      2.9771      8.5296
C     13.3230      8.4199     12.3526
C     14.4514      2.2769      7.1732
C     12.4178      6.5010     14.4859
H      5.3279      7.5394     12.2763
H      9.5084      2.7046      4.3175
H      6.2235      5.0394     18.5939
C     10.1253      7.6758     13.0130
O     14.9649     10.3564     -0.2964
C     16.1058      8.4664      7.2438
C      3.3742      1.1718     22.2291
C     16.1256      1.8021      4.7464
H     10.1884     10.1770     15.2812
H     18.4870     12.4202      5.7583
C      3.9815      3.5992     16.2956
H      8.8778     10.2852     17.8385
C     10.8763      8.4848     14.0446
C     11.0430      6.9005     11.8002
H     10.2307      9.2923     20.1186
C      5.4130      3.1017     17.9977
H     16.8586     12.7245      5.2449
H      8.1590      3.3440     14.8799
H      8.4212      1.7710     20.6142
C      2.6866     -0.7057     20.7105
C      5.0417     -1.3828     21.0019
C     10.7378      4.8342      3.4577
C     16.1210      9.6588      6.3919
C     15.8559      3.9303      2.4296
H      1.7858     -1.1842     20.0616
H     16.3172      8.2219      1.0322
H     10.4903      4.3815      1.1089
H     13.0149      9.5764     12.2170
H     14.5833      3.2958     12.4624
O      5.4920      6.8516     19.6749
C     13.6389      7.7569      4.4601
H     16.4868     10.2449      7.3177
C     10.4671      8.4746     16.8084
C     10.7959      7.4245     16.0241
C     10.4353      7.5433      7.7665
H     14.3707      2.7978      4.6588
H     14.0899      7.5739     10.5158
H      6.6968      1.6725     15.4162
H     12.6116      1.8326      8.8651
C     16.5449      1.9320      1.0029
C     13.1286      8.4268      2.2354
C     12.6812      3.9740      3.8240
C      7.2531     -1.0658     20.0485
H     15.8294     -0.9021      3.9181
H      9.3669      7.4089      7.2283
H     15.1935     10.0385      5.6019
O     13.0867      9.2599     19.3612
C      6.5331     -0.7190     21.0866
C     13.4883      6.7021      6.8156
C     15.1894      7.7454      0.9868
H     15.4930      9.0624      3.4493
C     13.7828      7.3986      3.0829
H      9.3036      0.1722     21.8368
C     15.5552      1.1817      3.3309
C     13.2349      3.0319      7.2400
C     10.2635     10.3066     19.5165
C     10.6802      2.7092      4.8361
C     17.7619     12.1335      4.9354
C      3.1823      3.4669     22.8416
C     11.8841      7.8254     14.6828
C      4.1451     -0.4817     20.5487
N     15.0558     -0.0631      3.7848
C     16.1804      0.8936     -0.1576
O     17.5206      6.2668      2.8735
C      9.4179      6.3461     13.8000
H     18.2487      9.6942      6.0588
H     14.3143      1.6897      8.0001
C     10.4120      4.1565      2.2558
C     10.3749      7.4989      9.3386
H     14.2667      1.4194      6.3614
H      7.5160      4.8216     13.1994
C     10.2929      9.6630     14.3986
H     15.7063      6.4764      9.5030
H     10.1652      5.2292      6.0012
H     11.7177      9.5172     17.8164
H     14.3617      9.4036     11.0037
H     15.1033      0.6890     -0.0166
H     11.5875      3.6194      8.6650
C     15.0774      7.0804      2.3358
H      4.7109      5.9645     23.1256
C     14.5136      8.3691     11.2245
H      2.6658      2.9488     23.6415
H     17.2075     11.3693      2.7756
C      4.0668      8.5738     17.5591
C      7.7776      7.5908     15.8779
C     20.2875     10.4942      0.8785
C     18.7238      8.6342      2.0759
C      4.2609      6.3303     19.4435
C     14.6605      4.8052      2.4501
C      5.9375      6.1978     13.2292
C      5.4957      7.7270     17.5955
C      8.0013      6.8735     14.0265
C      4.1814      5.0306     20.6328
C     14.2246      4.9724     13.9660
H      8.7360      6.1644     18.0424
C      6.2729      7.0519     18.4996
H      9.2668      5.3477     13.3294
C      7.1468      5.6082     14.0253
H     12.6008      3.2235      2.8129
O      7.5733      6.8681     18.5207
H      8.8381      9.3242     11.9426
H     15.0081      2.1316      2.9006
H     12.9055      9.4936      2.5001
H      4.3149      4.9518     13.4775
H      4.7003      5.1205     17.2694
C     12.0999      7.7318     11.2407
C     16.2610      6.4314      2.9249
H     14.5308      7.7314      8.7315
C     11.3711      4.0014      4.4335
C     13.2764      6.5334      5.3086
H     15.9475      0.3479      6.2973
C     14.3297      5.6111      4.5409
H     16.4765     -0.0328      1.9974
H     12.8016      6.8930      8.6867
C      8.1437      6.2881      8.9410
C      4.5062      1.0650     21.1797
O      6.3556      4.3597     17.8362
C      6.4393      7.9246     15.9620
C      9.9201     10.0022     18.1170
C     12.8256      6.2586     15.7116
C     11.3811      6.1764      3.7139
H     16.9792      9.1434      7.9667
H     15.4928      7.7750     11.4867
H     10.9958      1.9259      3.9853
C      2.3690      0.1649     21.5645
C     13.5875      5.0426      3.3808
C      4.9971      3.3307     15.4048
H     14.0344      4.5498      8.0853
H     10.2550     -0.7073     20.8355
H     15.1882     11.7794      1.3841
C     14.9310      6.5101      8.8115
C     11.2403      5.0570      5.7096
C     16.7004      1.1316      2.2809
C     14.6087      4.3825      5.6718
C     14.8354      6.2363      7.3705
C     15.0763      3.9894     13.1215
H     11.6940      5.7496     14.1272
H     17.8610      1.9378      0.8908
H     16.9727      0.0878      0.1997
H     11.3605     10.5606     19.2268
H      5.5997      1.2091     16.9231
C     12.5477      8.6870     18.3517
C      8.9448      7.2641      9.7441
H      5.9382      6.8912     15.9133
H     20.5879     11.3098     -0.0923
C      8.5769     -0.5194     20.2853
H     10.5049     10.6657     17.2904
H      5.9137      2.0986     22.3790
C     12.6681      7.0790      7.6560
C     13.6360      3.5111      5.1238
O      8.9943      5.5526     17.2537
C     11.5689      7.8099     18.6563
C      6.3293      2.3317     20.3776
C      5.3921      2.7935     19.6152
C     16.2314      1.3035      5.9958
H      7.7108      6.4681      7.7136
H      5.8943      3.9337     21.0872
H     13.9073      9.1961     19.8161
C     14.8624      4.7675      7.2021
C      3.8194      5.4390     17.9996
C      3.0416      2.5560     21.9351
H     19.5860     10.9211      1.4001
C      8.2614      7.4059     11.0183
H      3.6129      5.7166     21.3318
H     10.7877      5.7884     11.1377
H      7.4310      2.9389     20.2820
C      4.0358      2.9875     17.6325
C     17.2435      9.6443      5.5849
C      6.9605      0.4033     21.9341
C      5.5747      4.9916     21.1535
C      5.7783      1.4311     21.4919
H     13.1892      3.4022      9.5044
H     10.7463      8.5294      9.6042
H     18.5071      9.3528      0.2378
C     14.5418     10.0343      0.7885
H      3.2546      4.6030     22.9556
H      9.7669      9.1137     16.2898
