242

C     32.3695     -3.6964     14.0539
C      4.0611      1.5511      6.8985
C      2.6159      3.1215      1.2853
C      7.2084      5.2717      2.7015
H     10.0077     -9.6125      2.4304
C      7.5388      3.9671      3.0283
C     16.1529     -8.8879      5.5506
C     28.7516     -5.7303     19.8109
C      6.1143      2.1169      4.1148
C     26.7936     -4.4260     13.6141
N     -0.3360      2.7741      6.1324
C      0.8639      5.9535      0.2559
C     16.0472     -8.8089      7.0952
H      0.4030      5.0800     -0.1960
C     28.6137     -6.5604     17.5385
C     29.8175     -2.1731     16.6993
H      1.6907      0.3129      9.7477
H      9.6497     -9.9164      3.9628
H      6.1279      5.4696      2.9629
C     29.6741     -3.5503     16.3372
H      7.6542      4.0807      4.1134
H     25.1187     -6.1589     10.8513
H     11.8815     -8.3403      6.4497
C      2.9940      2.7053      7.5767
H     -3.5727     10.1253      1.0974
H      7.0073      1.7976      4.4776
O     27.8126     -2.4904     14.7914
C      8.5338      0.3078      8.3715
C     19.6986     -6.8165      9.9505
H      2.1659      5.8660      9.5799
C      6.2521      2.9477      2.8722
H     19.2552     -8.7186      8.7091
H      5.2089     -2.2514      7.1839
C     30.6064     -1.9811     17.9843
C     10.1590     -4.5158      4.8905
O      1.6560      8.4482      4.8711
C     -1.9011      7.5139      6.8937
C     21.5101     -4.5934     12.1431
C     33.2024     -4.9510     13.2887
C      6.2053      7.2561     -0.4003
H     29.6464     -3.5078     14.4443
H      1.5686     -1.0696      2.7889
H     -4.6354      4.8186      8.8679
H     28.8509     -1.6755     16.6179
C     19.9046     -6.3600     11.3414
C      8.0825      6.3032      3.7558
C     11.7181     -6.5989      4.9386
H     28.4350     -3.9004     21.1007
H      4.5191      1.2305      2.6847
H     30.6591     -5.7966     15.5389
C     10.1448     -1.6316      7.8279
C     18.4407     -7.0126      9.4838
C     28.3957     -5.3314     18.2698
C      4.3404      6.0676      0.8039
C     30.3889     -4.0404     15.2289
H      9.1897     -5.0859      5.2477
H      8.5274      8.2600      3.1441
H      3.5822      0.8610     10.0362
H      6.7953     -0.0876      9.4018
H     32.0553     -0.9701     18.7169
C     -0.2364      2.2991      8.5114
C     26.2770     -4.5627     12.1124
C      1.7906      2.2160      6.9060
C     -0.4009      6.2133      1.2691
H      5.3464      7.8428     -0.8428
H     10.5325    -11.0835      3.4923
H      6.3874      4.4866      5.8713
C     22.7645     -5.1838     12.8264
O     27.8066     -2.4539     12.4503
C     28.8479     -4.2148     20.2937
C      3.3992      1.3081      9.1147
C      3.0341      1.6902      4.6376
H     -1.8828     10.5208      1.7185
H     30.9872     -0.0701     19.3483
H      4.3136      5.5030     -0.2034
C      3.9771      3.4310      3.2236
H      9.1368     -2.9596      6.4231
C     -2.1187      8.6652      0.6223
C     23.7872     -5.6525     11.8776
C      5.2178      3.1354      5.1643
H     31.4363     -0.1223     17.2551
H      8.2886      3.2832      2.2979
H      9.2058      1.1206      8.6908
C      3.0375     -0.8593      8.0056
C      5.3661     -1.3241      7.8295
C     10.6551     -7.8937      3.0980
C     28.9895     -2.9687     19.4457
C      2.6250      3.6714      2.5626
H      2.3317     -1.6688      7.8520
H     28.8848     -5.6158     13.6683
H     10.5528     -8.6625      0.9883
H     25.5909     -3.6625     12.3136
H      2.2377      3.4491     -0.4857
O      5.3222      7.1856      6.7255
C      0.3921      7.9257      4.4874
H     29.4185     -2.1907     20.0290
C     10.1709     -4.3680      3.4293
C     10.8912     -5.3673      2.8186
C     -3.1705      6.9300      7.4086
H      1.0819      2.4285      4.7329
H     28.0837     -5.7874     11.5122
H      5.9998      2.2956      1.9782
C      3.5543      1.7392      0.8872
C     -0.0310      8.4192      1.8800
C      0.0369      3.8324      3.8366
C      7.6436     -1.3980      7.0435
H      1.5338     -0.4456      4.5233
H     -4.3289      7.0050      7.2192
H     28.1961     -2.3900     18.7062
H      1.2010      6.6542     -0.6079
O      0.0911      9.3042      6.4142
C      6.6210     -0.6981      7.5586
C      0.1821      6.6445      6.7466
C     27.9305     -5.2408     14.0793
H     28.6269     -3.6680     15.9144
C      0.5210      7.7326      2.8499
H      8.1448      0.0141      9.4521
C      2.5487      0.9891      3.2586
C      0.3526      2.3873      7.1561
C     10.6072     -2.4630      6.8219
C     10.6813    -10.2713      4.3069
C     31.0554     -0.7078     18.3028
C      3.0963      3.5884     10.0596
C     -1.1710      7.7888      1.4544
C      4.2472     -0.5490      8.4490
N      1.9238     -0.3494      3.4371
H      3.9754      0.8117     -0.8057
C      3.1620      0.9479     -0.2579
O     30.1755     -6.4282     16.0206
C      9.4790      6.7395      1.0929
H     31.0248     -3.8856     19.5942
H      1.4455      0.5936      7.7950
C     10.9145     -9.1969      1.8999
C     -3.0086      7.5835      8.9809
H      2.0876      1.4311      6.1224
H      7.7694      5.1652      0.6094
C     -2.4995      9.9085      1.1058
H      1.3362      7.3435      9.0549
H     10.2184     -7.5325      6.2222
H     -1.0389      9.8812      4.8176
H     27.3410     -4.2571     10.4236
H      2.5891      1.9695     -0.7892
H      0.0973      2.9546      9.1756
C     27.8179     -5.5069     15.3916
H     17.6741     -7.0535     10.3330
C     27.6213     -4.7389     11.3962
H     29.9180     -1.6318     15.7357
C      4.1392      8.5359      4.7141
C      7.8284      7.4754      2.9884
C     33.1725     -2.5313     13.7823
C     31.7820     -4.1004     15.3532
C      4.0056      6.2392      6.6820
C      1.8071      4.8748      2.3945
C      5.7175      6.2174      0.5700
C      5.5355      7.6673      4.6202
C      7.9270      7.0334      1.6120
C     17.1494     -7.9022      7.5911
C      1.6769      4.9637      0.9693
H      7.4115      8.6430      6.2877
C      6.1142      7.5399      5.7818
H      9.0286      5.6022      1.0199
C      7.0468      5.8875      1.3726
H     -0.7921      3.4718      3.5697
O      7.5867      7.6942      5.9960
H      1.7317      1.6065      3.0502
H     -0.3727      9.4766      2.2479
H      4.1430      5.2684      1.6117
H      4.6535      5.5526      4.5473
C     25.1567     -5.5822     11.8005
C     28.8683     -6.2154     16.1486
H      0.5460      6.0061      9.3584
C     10.8538     -8.8054      4.2772
C     13.1777     -6.4119      5.2999
H      2.8305     -0.2631      5.1858
C     14.2096     -7.4242      4.6851
H      3.6993     -0.0479      1.9987
H     -0.9537      6.3386      8.6655
C     -4.9781      5.8995      9.2039
C      4.5665      0.8135      8.1829
O      5.7820      4.3960      5.2496
C      6.4667      7.8460      3.3785
C      9.9243     -3.2245      5.6664
C     -0.1424      6.3808      2.8674
C     11.4064     -6.4990      3.5224
H     29.8263     -4.1530     20.6092
H     28.2967     -4.3730     12.0476
H     27.2146     -2.4642     11.7135
H     10.3787    -10.7363      5.3461
C      2.2674      0.2876      8.5637
C      0.6966      5.2030      3.4213
C      4.8324      3.8475      2.3845
H      0.8969      4.1233      7.3791
H     10.4604     -1.3228      8.7424
H      7.7332     -1.9945      5.9815
C      1.5009      6.2424      8.8809
C     11.0214     -7.9702      5.4975
C      3.6414      0.9254      2.2030
C     14.6386     -8.5910      5.6004
C      1.6098      6.2639      7.3690
C      2.6916      4.1712      0.1107
H     -1.2007      5.1850      1.2269
H      4.5443      2.0295      0.3997
H      2.5999     -0.0862      0.0949
H     11.7874     -2.9632      7.1552
H      5.5706      1.2301      3.7863
C     -0.6046      8.8412      5.1611
C     -4.0273      7.1203      9.8716
H      6.0441      6.9203      2.9805
H     32.8233     -2.1353     12.9113
C      8.8419     -0.9193      7.6514
H     10.0831      6.3262      1.7238
H      9.8833     -2.3201      4.8510
H      6.1083      1.8547      9.5451
C     -0.7586      6.9571      7.6041
C      0.7237      3.3280      5.1545
O      8.4057      6.1867      4.8183
C     -1.6973      7.7347      5.5990
C      5.9793      2.5008      7.5254
C      5.1802      2.4372      6.4935
C      3.4013      0.8913      5.6547
H     -5.3162      6.5109      8.2204
H     17.7839     -9.1161      8.7997
H      1.0755      9.6622      6.5317
C      1.8043      4.8001      6.8756
C      3.6939      5.4878      5.3024
C      3.2766      2.7378      9.0245
H     32.9809     -1.5013     14.0810
C     21.0608     -5.6182     11.0508
H     16.1461     -7.6749      8.1486
H     23.4297     -6.1033     10.8848
H      7.0137      2.8176      7.2320
C      3.7785      3.1352      4.6009
C     30.3224     -3.3876     18.7204
C      6.8467      0.4088      8.4963
C     18.2799     -8.2486      8.6439
C      6.0163      1.5521      8.5211
H      0.2475      1.4254      9.1237
H     -2.1478      8.3107      8.9727
H     31.3009     -3.8649     13.5166
C     27.5455     -3.1406     13.6892
H      2.8252      4.6275      9.9936
H      9.8370     -3.7151      2.8147
