241

C     19.7848      9.0861     13.7371
C      4.0789      1.7354      6.9880
C      3.1539      3.0468      1.0358
C      7.0259      5.2269      2.6425
H     -3.0461      3.4801      2.9051
C      7.5953      3.9239      2.9664
C      3.3181      4.2522      5.4324
C     15.9184      7.2471     19.5780
C      6.0110      2.0418      4.3042
C     13.8520      8.7656     13.7727
N     -0.3113      3.1677      6.2027
C      0.5821      5.8586      0.4408
C      3.2665      4.0540      7.0009
H      0.7050      5.8211     -0.7613
C     15.7718      6.3039     17.3685
C     16.7143     10.5263     16.4972
H      1.5433      0.4623      9.8624
H     -1.6236      2.3038      5.5537
H      6.1459      5.3626      3.1876
C     16.6622      8.9691     16.1046
H      7.9087      3.9417      4.0553
H     11.8096      8.0147     10.4820
H     -0.7824      4.8729      6.4454
C      2.7211      2.6898      7.6083
H     -3.3909     10.1501      0.3720
H      6.9709      1.3457      4.3387
O     15.0688     10.9167     14.8550
C      8.4480      0.4381      8.3555
H      2.5452      4.2776     -0.5374
C      6.6913      6.0536     10.0056
H      1.6521      6.2282      9.5127
C      6.1916      2.8492      2.9412
H      6.4828      4.4516      7.9742
H      5.1788     -2.4918      7.7327
C     17.1395     10.9818     17.6422
C     -2.9817      8.3109      5.0819
O      1.9315      8.5692      5.0109
C     -1.6773      7.6514      7.1016
C      8.6936      8.1874     12.2988
C     20.4435      7.8611     13.2169
C      6.3417      7.1849     -0.5198
H      5.1461      3.7938      1.3076
H     17.1150      9.8932     14.1428
H      1.7436     -0.2247      3.1838
H     -4.2524      5.4505      8.4523
C      7.0152      6.8028     11.1452
C      7.8500      6.2110      3.2435
H     20.3568     10.4817     15.4383
C     -1.1476      6.2542      5.0751
H     15.2919      8.8046     20.6507
H      4.9370      1.1855      2.5273
H      4.2682      6.4310     -0.8037
C      9.7616     -1.3068      7.0213
C      5.5574      5.4015      9.5803
C     15.8879      7.6558     18.1424
C      4.2972      6.1033      0.2829
C     17.3552      8.9071     14.8180
H     -3.8516      7.9066      5.6422
H      8.5770      8.0831      3.0342
H      3.6364      0.8723     10.2256
H      7.3994      0.2456     10.1143
H     18.5787     12.7968     17.7996
C     -0.3049      3.3262      8.4999
C     13.3127      8.4171     12.2970
C      1.4266      1.9669      6.9242
C     -0.5002      6.3835      1.4101
H      5.5984      7.8474     -1.1164
H     -3.2340      2.8427      4.8250
H      6.0796      4.8777      5.9015
C     10.0704      7.5749     13.0209
O     14.6890     10.5727     12.6485
C     16.1934      8.6168     20.2546
C      3.4606      1.1214      9.1685
C      3.4523      1.7846      4.6916
H     -2.5966     10.5103      1.7284
H     18.8127     12.0962     18.8662
C      4.0060      3.7213      3.1319
H     -4.1905      9.9672      5.0220
C     -2.1980      8.5986      0.9164
C     10.8958      7.2066     11.8901
H     -2.3503      9.5866      6.9619
C      5.4170      3.0985      5.1622
H     17.2069     13.0583     18.5257
H      7.9981      3.8984      2.0193
H      7.9603      1.1088      7.3257
C      2.7016     -0.5911      7.7871
C      5.1673     -1.3870      8.0052
C     -2.1853      4.9690      3.3624
C     16.1151      9.8457     19.6159
C      2.8644      3.7336      2.2755
H      1.7054     -1.2397      7.3927
H     16.7869      8.4014     14.1056
H     -2.9254      4.7442      1.3491
H      1.6563      2.9620     -0.4911
O      5.3380      6.9656      6.6431
C      0.6112      7.7568      4.5682
H     16.5149     10.7844     20.3586
C     -2.6880      8.3402      3.6287
C     -1.8909      7.5020      2.9037
C     -2.8018      7.8354      7.9386
H      1.2055      2.4932      5.1249
H     13.9006      7.7642     10.7516
H      6.1690      2.2952      1.9832
H     -1.3500      3.1629      8.8751
C      3.7617      1.6105      0.9022
C      0.1215      8.7404      2.1231
C     -0.2362      3.8445      3.9211
C      7.4506     -1.3639      7.5229
H      3.4709     -0.4694      3.6288
H     15.2031     10.3463     19.2642
H     15.7202      7.6488     13.1407
O      0.3036      8.7783      6.4957
C      6.5720     -0.8199      8.2950
C      0.4382      6.6968      6.9349
C     14.9544      7.5353     14.1245
H     15.8482      8.6557     15.5622
C      0.7717      7.4990      3.1589
H      9.2042      0.7441      9.0024
C      2.8034      1.2874      3.4232
C      0.0838      2.6492      7.2192
C     -2.4946     10.6738      6.4074
C     -2.1823      2.7332      4.5680
C     17.7794     12.2135     18.2554
C      3.4807      3.4160     10.0415
C     -1.0813      7.8923      1.6722
C      4.0902     -0.7161      7.6491
N      2.5082     -0.1031      3.8360
H      2.3085      1.6610     -0.8171
C      3.1522      1.0651     -0.3092
O     17.4162      6.2446     15.8120
C      9.3377      6.5414      0.8287
H     18.1964      9.4908     19.0187
C     -2.6757      4.3708      2.3191
C     -2.6586      7.6147      9.3409
H      1.7832      1.3060      6.2427
H      8.0725      4.8620      0.9336
C     -3.1081      9.7140      1.2915
H      2.9929      7.4629      8.8494
H     -2.7991      4.8657      5.9556
H     -0.8650      9.5101      4.6657
H     15.3351      8.8043     11.3279
H      2.4304      0.2961      0.5036
H     -0.5020      4.4888      8.1714
C     15.1152      7.3057     15.4592
H      4.9360      5.5235     10.2772
C     14.5518      7.9001     11.5016
H      3.2290      3.1074     11.1761
H     17.0553     10.6866     15.4563
C      4.0363      8.4701      4.6742
C      7.6665      7.5643      2.7586
C     20.1402     10.4965     14.2296
C     18.9181      8.7071     14.8605
C      4.1725      6.1937      6.5545
C      1.7423      4.7589      2.3514
C      5.7139      6.1706      0.5883
C      5.5343      7.9002      4.4773
C      8.0677      6.9518      1.2961
C      4.2354      4.9832      7.6401
C      1.2905      4.7438      1.0061
H      9.4628      6.7140      4.4421
C      6.2219      7.3277      5.6223
H      9.5353      5.7440      0.0363
C      7.0625      5.6782      1.1889
H     -0.2170      3.1788      3.0860
H     -1.5633      7.0545      9.5559
O      7.3252      7.4947      6.1763
H      8.3881      9.2643     12.2594
H      1.8703      1.9247      2.8780
H     -0.0231      9.7767      2.5613
H      3.7284      5.6349      1.1885
H      4.8083      5.6756      4.5927
C     12.1900      7.7656     11.6524
C     16.1324      6.4305     16.1067
C     -1.5551      4.1353      4.5151
C      0.3706      6.5082      5.3054
H      2.5604      0.1758      5.7700
C      1.4219      5.5540      4.8430
H      4.0349     -0.1212      2.3969
H      0.0261      7.5153      8.5244
C     -4.8013      6.1568      9.0543
C      4.4677      0.8370      8.1860
O      6.3849      4.2755      5.3165
C      6.2678      8.0020      3.0485
C     -3.0603     10.0005      5.2582
C     -0.0501      6.0046      2.8444
C     -1.5139      6.2341      3.4495
H     16.7062      8.5930     21.2972
H     14.8314      7.0516     12.0696
H     -1.9687      2.0819      3.6716
C      2.2150      0.3313      8.8520
C      0.7423      4.9132      3.4073
C      5.1295      3.6655      2.3440
H      1.1764      4.2315      7.6753
H     10.7476     -0.7522      7.3527
H     14.8530     11.2260     15.6798
H      7.4684     -2.1553      6.7546
C      1.9396      7.0906      8.7942
C     -1.6416      5.0858      5.7132
C      3.8578      0.9564      2.2977
C      1.7460      4.2134      5.6267
C      1.7576      6.4357      7.3274
C      2.1729      3.6705      0.1398
H     -1.4865      5.8244      0.9151
H      4.8494      1.6565      0.5241
H      3.6957      0.4227     -0.9438
H     -1.5283     10.8083      5.8720
H      5.3469      1.2686      4.3488
C     -0.4066      8.6401      5.3987
C     -4.0160      7.0327      9.7932
H     17.8754      7.0454     15.5207
H     20.8661     11.1576     13.4589
C      8.6573     -0.7744      7.5653
H     10.1804      6.1820      1.3520
H     -2.2199     10.0507      4.6305
C     -0.5439      7.0261      7.8565
C      0.6233      3.3875      5.2363
O      8.8507      5.9734      4.2411
C     -1.6937      7.6449      5.6899
C      6.4204      2.4137      7.1762
C      5.2236      2.5162      6.4980
C      3.2117      1.0317      5.9024
H      4.9950      3.8810      8.8239
H      0.9622      9.4278      6.5006
C      1.9379      4.8007      7.0235
C      3.8427      5.5678      5.3068
C      3.0426      2.6130      8.9548
H     19.2772     11.1658     14.3446
C      8.2745      7.3983     11.0778
H      3.6750      5.5898      8.4182
H     10.7856      6.2439     11.5513
C      4.0023      3.4177      4.5898
C     17.2204      9.7577     18.4290
C      7.2098      0.3391      9.0665
C      5.5073      4.5501      8.3681
C      5.8014      1.3261      8.5875
H      0.7559      3.0076      9.0494
H     -2.3449      8.8072      9.9092
H     19.1064      9.1846     13.0040
C     14.6930     10.0273     13.7712
H      3.3157      4.2184      9.4982
H     -2.8253      9.3061      2.9397
241

C     19.6462      9.1659     13.7238
C      3.9916      1.7336      6.9522
C      3.1110      3.1708      1.0576
C      7.0918      5.2883      2.7744
H     -3.3015      3.4830      2.4797
C      7.6247      3.8473      3.0116
C      3.1612      4.2149      5.5051
C     15.9191      7.1854     19.6134
C      6.0795      2.1507      4.1680
C     13.7810      8.7611     13.7838
N     -0.2478      3.2064      6.1802
C      0.5869      5.8448      0.5080
C      3.2751      3.9985      7.0049
H      0.2639      6.1038     -0.5397
C     15.7600      6.2634     17.5557
C     16.8258     10.4168     16.4745
H      1.7783     -0.2969      9.7094
H     -1.5002      2.2693      5.5389
H      6.1621      5.5167      3.3423
C     16.6105      8.8928     16.2534
H      7.9770      3.4693      4.0701
H     12.5708      7.6114     10.6740
H     -1.3857      5.1059      6.5436
C      2.8485      2.8046      7.6003
H     -3.8186      9.9053      0.2267
H      7.3538      2.0264      4.1304
O     15.1746     10.9928     14.6162
C      8.5329      0.3816      8.3708
H      2.4337      4.2033     -0.6798
C      6.6601      6.0068      9.9202
H      1.6052      6.0123      9.2684
C      6.2693      2.8603      2.6847
H      6.1130      3.9059      7.6445
H      5.5427     -2.1660      8.1240
C     17.1063     11.0500     17.6861
C     -2.9421      8.3251      4.9409
O      1.8775      8.5597      5.0451
C     -1.6760      7.6329      7.1447
C      8.6916      8.1799     12.2064
C     20.3788      7.9533     13.1258
C      6.2786      7.2816     -0.4443
H      5.0516      3.8210      1.1754
H     17.3968      9.8478     14.4930
H      1.4755     -0.4985      3.2232
H     -4.5066      5.4443      8.6426
C      7.0810      6.7507     11.0460
C      8.0039      6.1852      3.2267
H     20.6822     10.3953     15.0164
C     -1.2216      6.2943      4.9627
H     15.3714      8.4818     21.0822
H      5.0528      1.1358      2.3621
H      3.9704      6.9901     -0.1669
C      9.8531     -1.0921      7.0055
C      5.6047      5.4397      9.4549
C     15.8796      7.5929     18.2418
C      4.4308      6.0636      0.3789
C     17.4616      8.8176     14.9466
H      8.4326      8.1141      2.9261
H      3.8198      1.2681     10.2675
H      7.2595     -0.0091      9.9471
H     18.7429     12.4307     17.3996
C     -0.2710      3.2194      8.5937
C     13.2905      8.4398     12.1807
C      1.4948      1.9678      7.1180
C     -0.4779      6.2915      1.4916
H      5.0967      7.8378     -0.7505
H     -2.9193      2.4439      5.1497
H      6.8063      4.9857      5.8866
C     10.0221      7.7250     12.9682
O     14.6347     10.5838     12.5375
C     16.0936      8.5317     20.3163
C      3.5046      1.1911      9.2934
C      3.5548      1.8651      4.6510
H     -2.7441     10.0894      2.0262
H     18.3362     11.8821     18.7805
C      4.0029      3.6227      3.2044
H     -4.2559     10.2065      4.9787
C     -2.1683      8.6417      0.8348
C     10.9938      7.1437     11.9625
H     -2.4501      9.9046      7.1690
C      5.5209      3.1042      5.1588
H     17.6896     13.1934     18.3759
H      8.3910      3.5092      2.2856
H      8.5231      1.1910      7.4468
C      2.6778     -0.5177      7.8399
C      5.2563     -1.3108      8.0727
C     -2.1492      4.9906      3.3021
C     16.1570      9.7581     19.5869
C      2.8808      3.6246      2.3671
H      2.1373     -1.3534      7.2635
H     16.9456      8.2135     14.1518
H     -2.5647      4.2709      1.3114
H      1.7516      2.9001     -0.6841
O      5.3913      6.8029      6.7012
C      0.4592      7.6987      4.5609
H     16.4669     10.3252     20.3889
C     -2.7308      8.2174      3.4223
C     -1.8011      7.4985      3.0015
C     -2.7586      7.5460      7.7561
H      1.1567      2.3383      4.7579
H     13.8466      7.9311     10.4443
H      6.8268      2.1298      2.1362
H     -1.4391      3.3084      8.5423
C      3.6468      1.7362      0.9951
C      0.1341      8.7172      2.1958
C     -0.0967      3.8426      3.9802
C      7.5489     -1.4513      7.3950
H      3.2959     -0.7688      3.4810
H     14.9865     10.1592     19.7414
H     15.7175      8.0976     13.7376
O      0.4197      8.7105      6.5849
C      6.6030     -0.7176      8.0758
C      0.3435      6.6543      6.9751
C     14.8563      7.6020     14.1299
H     15.5145      8.3710     16.1467
C      0.7162      7.3857      3.2097
H      9.2311      1.0219      8.9824
C      2.8529      1.3592      3.3469
C      0.2335      2.7481      7.3793
C     -2.5370     10.6777      6.3612
C     -2.1080      2.6915      4.4972
C     17.9072     12.2177     18.0503
C      3.2485      3.5633      9.9837
C     -1.1167      7.8415      1.5710
C      4.0690     -0.6707      7.8636
N      2.3494      0.0017      3.7064
H      2.6839      1.9029     -0.9508
C      3.0538      0.9802     -0.2019
O     17.3592      6.3090     15.6249
C      9.4385      6.5381      0.9030
H     18.3353      9.8161     18.7966
C     -2.7627      4.4204      2.3263
C     -2.7933      7.5480      9.3532
H      1.6627      1.8287      6.0510
H      7.6582      5.1363      0.7867
C     -3.0844      9.6907      1.1354
H      2.7266      7.0713      9.4525
H     -2.6387      5.1876      6.0189
H     -0.3257      9.7589      5.3024
H     14.9670      8.6800     11.1969
H      1.9836      0.3515      0.0084
H     -0.6253      4.2293      8.1208
C     15.0452      7.1527     15.5208
H      4.4435      5.4434      9.9034
C     14.4263      7.8578     11.3808
H      3.4886      2.8022     10.7278
H     16.9174     11.4336     15.6515
C      4.1093      8.5149      4.6977
C      7.7635      7.4139      2.7037
C     20.1544     10.5036     14.1807
C     18.8612      8.6736     14.9659
C      4.2000      6.1932      6.5476
C      1.7362      4.7434      2.3506
C      5.8083      6.1435      0.5167
C      5.5818      8.1170      4.5162
C      7.9188      6.8767      1.2119
C      4.1600      5.0640      7.5525
C      1.3523      4.5979      0.9654
H      9.3183      6.8203      4.6411
C      6.0644      7.3174      5.5405
H      9.2345      5.7441     -0.1803
C      6.9705      5.7126      1.2898
H     -0.3761      2.9015      3.4044
H     -1.8796      6.9202      9.7341
O      7.3022      7.4581      6.0565
H      8.9306      9.2038     11.9885
H      1.7389      1.8173      2.8115
H     -0.1995      9.5404      2.8957
H      3.5887      5.7564      0.9475
H      4.6217      5.3867      4.2419
C     12.1383      7.7545     11.6800
C     16.1635      6.5001     16.1069
C     -1.6169      4.1596      4.3297
C      0.4109      6.5522      5.5043
H      3.0950     -0.0848      6.0980
C      1.4542      5.5869      4.7965
H      3.8687      0.1140      1.7999
H     -0.2180      7.3696      8.7638
C     -4.8294      6.2007      9.0039
C      4.4486      0.7484      8.1477
O      6.4629      4.2086      5.2848
C      6.3490      7.9440      3.0746
C     -3.1914      9.8816      5.1684
C     -0.1511      6.2061      2.8785
C     -1.3427      6.2448      3.5667
H     17.0338      8.3195     20.4844
H     14.7027      7.0358     11.9103
H     -1.3093      2.2423      4.0453
C      2.2430      0.3620      8.8551
C      0.6936      4.9580      3.5241
C      5.0342      3.5431      2.2859
H      1.0484      4.5410      7.1430
H     10.7069     -0.8663      7.9984
H     15.0283     10.8372     15.6550
H      6.9333     -2.0034      6.5866
C      1.9678      6.9372      8.8066
C     -1.5669      5.0296      5.5875
C      3.9794      0.9129      2.3305
C      1.7149      4.4064      5.5912
C      1.8511      6.6092      7.4203
C      2.2028      3.6773      0.0894
H     -1.2964      5.7515      0.9232
H      4.6835      2.1058      0.7430
H      3.8109      0.3290     -0.4403
H     -1.6482     10.9984      6.2300
H      5.6486      1.2610      4.2010
C     -0.2898      8.7325      5.2361
C     -4.0457      7.0541      9.8658
H     17.7974      7.1289     15.5120
H     20.7902     10.7862     13.2335
C      8.7054     -0.7817      7.6760
H     10.1406      6.4143      1.5493
H     -2.8240     10.4118      4.4582
H      5.5505      1.8030      9.7485
C     -0.6500      6.9428      7.8353
C      0.6293      3.3156      5.1054
O      8.8250      5.8513      4.2222
C     -1.6598      7.7479      5.6508
C      6.5060      2.2344      7.3177
C      5.3351      2.4564      6.5578
C      3.3531      1.0393      5.8941
H      4.9410      3.8267      8.4746
H      1.2654      9.2015      6.6805
C      1.9012      4.8523      6.9981
C      3.9343      5.5421      5.2159
C      3.0654      2.5930      9.0519
H     19.2400     10.8764     14.1175
C      8.3460      7.3082     11.0819
H      3.2469      5.3750      8.2902
H     10.7514      6.4581     11.1294
C      3.9866      3.2688      4.5921
C     17.2797      9.7645     18.5594
C      6.9810      0.3471      8.9917
C      5.4645      4.6944      8.3421
C      5.8647      1.4624      8.4937
H      0.2749      3.1087      9.5361
H     -2.5013      8.6064      9.6072
H     19.1404      9.5383     12.8946
C     14.6367     10.0480     13.6780
H      3.0550      4.6361      9.9999
H     -2.6271      9.3693      3.0410
