238

C     19.6824      9.2082     13.9723
C     -8.8066     14.5703      6.8669
C      3.1246      3.2784      0.9764
C     -6.0381     18.1891      2.7457
C     -5.4326     16.5826      2.7151
C      3.3897      4.3067      5.6123
C     15.8568      7.4409     19.6682
C     -6.9857     14.8526      4.0674
C     13.6358      8.7461     13.5104
N    -13.1037     16.1708      6.3423
C      0.3943      5.7077      0.5223
C      3.2002      4.2673      7.0746
H      0.2567      5.8709     -0.5829
C     15.6175      6.2784     17.4693
C     16.7666     10.7087     16.7250
H    -11.6277     12.8362      9.0967
H     -2.4245      2.5366      5.6170
H     -7.1047     18.1489      3.3035
C     16.7192      9.2883     16.3494
H     -4.7589     16.5172      3.5819
H     12.0584      7.2453     10.7170
H     -0.8178      4.8316      6.4954
C     -9.8698     15.5893      7.5813
H     -3.5413      9.9563      1.1991
H     -6.1433     14.2024      4.3534
O     14.6673     10.5367     14.6705
C     -4.6786     13.1757      8.2723
C      6.9248      5.6942     10.1828
H      2.2086      5.4930      8.9708
C     -6.6538     15.7247      2.6952
H      6.5305      4.7909      7.8823
H     -7.8750     10.1354      8.4331
C     17.5168     10.8739     17.7723
C     -3.0250      8.3704      5.0784
O      1.9402      8.5225      4.7783
C     -1.7135      7.4133      6.9698
C      8.8691      8.0306     12.2313
C     20.4877      8.1113     13.2270
C     -6.5239     20.2241     -0.6328
H     -7.4834     17.1116      1.3951
H     17.4711     10.5082     14.9532
H    -11.7128     12.5039      3.3348
H     -4.3549      5.1663      8.5932
C      7.2559      6.7323     11.1387
C     -5.1047     19.0100      3.5419
H     20.4829     10.0880     15.6111
C     -1.1665      6.4271      4.9642
H     14.6365      8.8813     20.5244
H      4.3088      2.0333      2.4992
H     -8.8518     19.5539     -0.4089
C     -2.9667     11.5507      7.1111
C      5.3923      5.4490      9.8309
C     15.7890      7.6481     18.1411
C     -8.4861     19.1203      0.5099
C     17.3728      9.3801     14.9913
H     -3.6101      7.4802      4.8983
H     -4.8767     21.3625      3.4549
H     -9.0460     13.3671      9.7707
H     -6.0424     12.6892      9.7952
H     18.2293     12.5939     17.3240
C    -13.0344     15.8555      8.4966
C     13.1668      8.2869     12.2769
C    -11.2317     15.0606      7.2218
C     -0.4374      6.3185      1.4409
H     -7.5103     20.6842     -0.7474
H     -3.5063      3.1226      4.3887
C     10.0393      7.2124     13.1191
O     14.6072     10.8371     12.4625
C     15.9021      8.6700     20.3633
C     -9.6246     13.7624      8.9291
C     -9.4985     14.6199      4.5851
H     -2.0157     10.3727      2.0705
H     18.9649     11.7108     18.6322
C     -8.7736     16.6916      3.2056
H     -4.7346      9.3435      6.0865
C     -2.2547      8.5567      0.9033
C     11.0141      6.5905     12.2790
H     -1.8353      9.4297      6.9813
C     -7.4722     15.9128      5.2971
H     14.5101     11.7866     12.8192
H     17.4208     12.4309     19.5147
H     -4.6526     16.7580      1.6409
H     -4.8479     13.8550      7.3956
C    -10.3136     11.9931      7.6600
C     -7.9246     11.2377      8.2093
C     -2.1921      5.0739      3.4195
C     16.4232      9.8487     19.6272
C      2.9277      3.8214      2.2946
H    -10.9304     11.5805      6.9898
H     15.8180      8.9482     13.6820
H     -2.2166      4.3172      1.4206
H      1.8185      3.2906     -0.5231
O     -7.4620     20.2870      6.7146
C      0.6254      7.9047      4.6103
H     15.9284     10.3756     20.5426
C     -2.6029      8.7653      3.5209
C     -1.8811      7.6566      3.0043
C     -2.6453      7.0355      7.8169
H    -11.3974     15.5692      4.8462
H     14.5958      8.1278     10.6225
H     -6.7031     14.9892      1.8268
H    -13.1862     14.8831      9.1730
C      3.4220      1.8467      0.9232
C     -0.0004      8.7664      2.1347
C     -0.0605      3.8637      4.0791
C     -5.5903     11.2107      7.5083
H    -11.5854     14.0290      4.5318
H     -3.5707      6.7692      7.2702
H     15.6887      9.9471     18.8408
H     14.8780      7.0682     12.8744
O      0.2123      9.6856      6.1049
C     -6.6282     11.8982      8.1350
C      0.6703      6.9019      6.8100
C     15.0204      7.8412     13.7643
H     15.9175      8.1985     15.7515
C      0.7457      7.7541      2.9052
H     -3.8610     13.5911      8.8150
C    -10.1586     14.2837      3.1849
C    -12.4172     15.7543      7.2861
C     -2.4161     10.3009      6.6918
C     -2.3842      2.8644      4.4565
C     17.8833     12.1552     18.2989
C    -10.0836     16.2100      9.9734
C     -1.1460      7.9197      1.7418
C     -8.7906     12.1473      7.7216
N    -11.1861     13.4810      3.7145
H      1.3357      1.4358      0.3541
C      2.4745      1.0325      0.0875
O     16.9396      6.4701     15.4602
C     -3.5766     19.3827      1.2119
H     18.5054      9.4700     19.2145
C     -2.4095      4.2171      2.3979
C     -2.5882      7.1990      9.2724
H    -11.1862     14.9012      6.1774
H     -5.0888     18.0809      0.7570
C     -2.6304      9.7886      1.2966
H      3.0240      7.0381      8.7774
H     -2.6052      5.4720      5.8511
H     -0.5999      9.6277      4.3231
H     14.2712      9.9625     11.0843
H      3.2198      0.2993     -0.0729
H    -14.0053     16.4484      8.8188
C     15.0083      7.4842     15.1939
H      4.5724      6.1545     10.0320
C     14.3413      8.8411     11.4134
H    -10.2917     15.6768     11.0867
H     16.6506     11.3880     16.0304
C     -8.6272     21.3970      4.7554
C     -5.2373     20.5160      2.8366
C     20.5389     10.5760     14.6173
C     18.7695      8.8318     15.0708
C     -8.7187     19.3980      6.5749
C      2.0066      5.0879      2.3826
C     -7.0729     19.1876      0.4808
C     -7.4654     20.3863      4.2067
C     -5.1350     19.9519      1.3672
C      4.1863      5.1657      7.6001
C      1.5079      5.0971      0.9660
H     -4.4767     17.6813      5.0883
C     -6.7793     20.3040      5.5028
H     -3.3830     18.1290      0.7073
C     -5.9962     18.4933      1.2482
H     -0.0141      3.1834      3.3060
H     -1.6244      6.9033      9.6452
O     -5.6432     19.7906      5.5487
H      9.0979      8.9538     11.9235
H      0.0229      9.6058      2.7974
H     -9.0177     18.3835      1.2024
C     12.0412      7.6660     11.6651
C     15.6612      6.2908     15.7086
H      1.4466      7.3521      8.5973
C     -1.6545      4.2217      4.4873
C      0.3890      6.6188      5.3846
C      1.3887      5.6474      4.7594
H     -0.0754      7.6924      8.5753
C     -4.8756      5.8631      9.2334
C     -8.4938     13.6471      7.9589
C     -6.6670     20.9676      3.2498
C     -3.5649      9.4970      5.6785
C     -0.0260      6.2543      2.8067
C     -1.3633      6.4100      3.5793
H     16.1948      8.7699     21.4177
H     15.4927      8.6694     11.7254
H     -1.9043      2.1486      3.7357
C    -10.8792     13.0876      8.3340
C      0.8546      5.0378      3.3158
C     -7.7133     16.4699      2.3083
H      0.8498      4.7696      7.4269
H     -2.4817     12.4292      7.2404
H     15.6088      9.3040     16.9996
H     -5.8607     10.7174      6.6584
C      2.1608      6.5643      8.7749
C     -1.5870      5.1396      5.5574
C      3.6830      1.0609      2.2466
C      1.6520      4.4826      5.5883
C      1.9819      6.4326      7.3017
C      2.2582      4.0955      0.1446
H     -1.0223      5.5482      1.3339
H      2.5664      1.3081     -1.0189
H     -1.6134     10.5137      5.8764
H     -7.7613     14.1611      3.8943
C     -0.5363      8.9169      5.1858
C     -3.8264      6.5085      9.8720
H     17.1392      7.5202     15.0912
H     21.4491     11.0977     13.9750
C     -4.2153     11.8193      7.4454
H     -3.0256     20.0041      2.1024
H     -3.9431     10.0983      4.7254
H     -7.3580     14.6539      9.4782
C     -0.4057      7.0493      7.5741
C    -12.2724     16.3947      5.1892
O     -4.1853     18.3854      4.5677
C     -1.6574      7.9961      5.5170
C     -6.5132     14.9318      7.4895
C     -7.4860     15.1120      6.5977
C     -9.5200     13.8469      5.6624
H      5.2954      3.7028      8.4901
H      0.4998      9.3088      6.9225
C      1.8276      5.0943      7.0374
C     -9.0525     18.6256      5.2978
C     -9.8923     15.1455      9.1253
H     19.7527     11.2371     14.9323
C      8.7328      6.8500     11.1982
H      3.5550      5.6325      8.5177
H     11.7401      5.7325     12.4505
H     -5.8492     15.8724      7.6949
C     -8.7717     16.0169      4.6588
C     17.5842      9.5751     18.5795
C     -6.0144     13.0845      8.7769
C      5.4649      4.8914      8.4708
C     -7.2404     14.0785      8.5539
H    -12.3227     16.3340      9.2833
H     -2.7115      8.1389      9.3530
H     18.9183      9.5157     13.3690
H      8.5201      5.6970     11.8761
C     14.5069      9.9704     13.5681
H    -10.2298     17.2970      9.6446
H     -3.3037      9.5118      2.9716
