242

C     19.6065      9.0822      0.8411
C     16.8441      1.7574      7.1371
C     15.8759      3.5673      1.1045
C      7.1104      4.9656     15.5890
H     10.2311      3.3156      2.5633
C      7.4826      3.5120     16.3179
C     16.2319      4.2494      5.5912
C     15.9078      7.3350      6.6968
C      5.9701      1.7784     17.2022
C     13.8578     -3.9726     13.5270
N     12.7261      3.2735      6.0603
C     13.2230     -7.0790     13.3617
C     16.3001      4.2541      7.2624
H     13.3445     -6.6109     12.3772
C     15.6727      6.2901      4.3931
C     17.1638     10.8501      3.4792
H      1.2783      0.3309     21.6571
H     11.1847      2.3062      5.3652
C     16.5861      9.5307      3.1921
H      8.1477      3.6772     17.1267
H     12.5262     -5.7103     10.9250
H     12.1690      5.0844      6.2262
C     16.1030      2.8225      7.7240
H      9.3570     -2.6326     13.5896
H      6.6790      1.1926     17.8442
O     14.5317     -2.4124     14.7735
C      8.3522      0.2930     20.9009
C      6.7789      5.7625     10.0373
H     14.1064      5.7831      9.1076
C      6.2687      2.6727     16.0041
H      6.2974      4.8056      7.7285
H      5.3064     -2.6279     20.7983
C     17.1469     11.0738      4.8599
C      9.9317     -4.6366     18.0772
O     14.7789      8.4359      4.7664
C     11.2237      7.3140      7.2128
C      8.6577     -5.1137     12.2785
C     20.2917      7.8871      0.3894
C      6.3009      7.2612     12.1973
H      4.6694      3.9032     14.3781
H     17.5638      9.8724      0.8301
H     15.4046     -0.4197      3.5176
H      8.5150      5.1773      8.2718
C      6.9963      6.8305     11.0018
C      7.7901     -7.0548     16.2603
H     21.0094      9.6159      1.9814
C     11.5666      6.3602      4.9425
H     17.7571      0.9031      2.1173
H      3.6784      6.7619     12.6943
C     10.0121     -1.3711     20.0898
C      5.6574      5.2029      9.6513
C     15.9666      7.6408      5.0852
C      4.2765      6.3419     13.4077
C     17.4211      9.3434      1.8607
H      9.0275     -5.4415     18.2519
H      8.5698     -5.1222     15.8378
H      3.2792      0.6251     23.2849
H      7.3899      0.4671     22.5722
H     18.4970     12.7379      4.7720
C     12.7196      3.3154      8.5127
C     13.2050     -4.5354     12.2563
C     14.5770      2.4755      7.2222
C     12.3319     -6.4038     14.3582
H      5.6431      8.0873     12.4381
H      9.6934      3.3652      4.4823
H      6.1473      4.3011     19.4621
C      9.8104     -5.5460     13.1074
O     14.9122     -1.9476     12.5248
C     15.5781      8.5815      7.3410
C      3.4678      0.9040     22.2104
C     16.5382      1.7438      4.6870
H     10.4545     -2.9316     14.9858
H     18.6968     11.0824      4.9740
C      3.9604      3.6726     16.1426
H      8.5486     -3.3169     19.1933
C     10.4491     -4.5759     13.9387
C     10.9367     -5.6833     11.9939
H     10.1403     -3.3254     20.5931
C      5.4623      2.8178     18.2161
H     14.4043     -1.2891     11.5623
H     18.0571     12.1465      6.5955
H      8.1030      3.0062     15.4245
H      8.3805      0.7994     19.8897
C      2.8164     -0.8031     20.4642
C      5.2274     -1.6026     21.1540
C     10.8059      5.1409      3.3062
C     16.5525      9.6355      6.7127
C     15.9005      4.1218      2.4661
H      2.1292     -1.6507     20.0841
H     16.0942      8.4668      0.6887
H      9.1149      4.4344      1.8522
H     14.7661     -9.0958     11.8928
O      5.2506     -5.3503     19.4996
C     13.5045      7.9544      4.6511
H     17.1542     10.3694      7.3308
C     10.2058     -4.1057     16.6878
C     10.8283     -5.1033     15.9965
C      9.9943      7.2367      7.8095
H     14.2245      2.3190      4.8951
H     14.2445     -5.2533     10.7372
H      6.4727      1.9039     15.1292
H     11.8737      2.5528      8.4940
C     16.6791      2.2438      0.9377
C     13.1208     -4.0618     14.9463
C     12.8989      3.7164      3.7993
C      7.4996     -1.8461     20.4187
H     14.3989      0.6190      4.2363
H      9.1257      6.6801      7.9346
H     15.5165     10.1115      6.0123
H     15.4047      6.8549      0.4994
O     13.1430     -3.2952     19.1317
C      6.6629     -1.3312     21.5381
C     13.4664      6.7523      6.7470
C     15.1913      7.8847      0.9849
H     15.6712      8.1247      3.3595
C     13.5737      7.6634      3.1186
H      9.2784      0.7398     21.4894
C     15.7170      1.7003      3.2210
C     13.3554      3.1302      7.2074
C     10.2728     -2.6307     19.5241
C     10.7030      2.8369      4.4341
C     18.2140     11.8971      5.4128
C      3.0736      3.4448     23.0200
C     11.6127     -4.9531     14.6798
C      4.3522     -0.5696     20.5201
N     14.9347      0.4702      3.3154
H     15.0766      0.8293      0.3099
C     16.0668      1.1681     -0.1170
O     17.1298      6.2474      2.4799
C      9.2112     -6.6185     13.9228
H     18.6243      9.3766      5.7896
H     14.8066      1.3446      7.4182
C      9.9782      4.4606      2.4591
C     10.1628      7.3863      9.4461
H     14.8701      2.4655      6.2384
H      7.4757      5.0391     13.3525
C      9.9322     -3.3556     13.9582
H     15.7057      6.6610      9.3981
H     10.2710      5.2004      5.5122
H     12.2527     -3.2507     17.3811
H     13.9217     -3.3568     10.5832
H     12.3097      4.2772      9.0213
C     15.1458      7.4206      2.4502
H      4.4559      5.5202      9.9142
C     14.3829     -4.3149     11.1675
H      3.0696      3.4604     24.0106
H     16.8784     11.3990      2.5663
C      4.2918     -4.3104     17.3902
C      7.6988     -5.7059     15.7367
C     20.4063     10.2736      1.6167
C     18.7108      8.8323      1.8934
C      4.2735      6.3659      6.6442
C     14.8317      5.2212      2.3351
C      5.6416      6.3043     13.1643
C      5.6639     -5.2476     17.0042
C      7.8532     -6.1479     14.1937
C      4.1917      5.3103      7.7084
C     14.3948     -7.6432     13.7890
H      7.9221     -7.7301     17.5207
C      6.2627     -5.5329     18.3278
H      8.8105     -7.5210     13.4257
C      6.8255      5.5679     14.0174
H     12.5471      2.8460      3.1230
H     11.2311      7.3675      9.5995
O      7.3862     -5.8368     18.7236
H      8.7715     -4.6470     11.5599
H     14.8455      2.4071      3.1337
H      3.5124      5.7603     13.8562
H      4.6759      5.1181      4.7286
C     12.3314     -5.5646     11.9311
C     15.8412      6.2957      2.8500
H     14.2245      7.6492      8.9417
C     11.4753      4.1342      4.1920
C     13.4119      6.3508      5.4554
H     15.5001      0.4768      6.0338
C     14.4037      5.5227      4.7283
H     16.3365      0.0699      1.9894
H     12.5453      6.6747      8.9963
C      8.1317      5.8386      9.2874
C      4.5197      0.6407     21.2739
O      6.3014      4.1579     18.3938
C      6.4438     -4.9786     15.7731
C      9.3028     -3.3144     18.6614
C     12.8232     -6.5563     15.8140
C     11.4336      6.3351      3.5238
H     15.8391      8.1042      8.2793
H     15.5538     -4.0384     10.8769
H     10.0500      2.3674      3.8088
C      2.2937      0.1861     21.2512
C     13.6321      5.1525      3.4525
C      5.1664      3.6176     15.4300
H     14.2461      4.6996      7.8131
H     10.9477     -1.0911     19.8278
H     15.5464      9.3242      3.6136
H      7.1727     -2.3767     19.5790
C     14.7619      6.6389      8.8288
C     11.3320      5.0977      5.4813
C     16.6012      1.2839      2.1215
C     14.6423      4.3790      5.5887
C     14.7283      6.5079      7.3813
C     15.2181     -8.5798     12.9576
H     11.3395     -7.0632     14.1663
H     17.6659      2.4761      0.6607
H     16.0743      1.3974     -1.2790
H     11.2305     -2.7282     18.9436
H      5.1482      1.0957     16.8527
C     12.4773     -4.1230     18.3077
C      9.1219      6.5555      9.9411
H     17.3660      7.0612      2.1141
H     20.9950     11.1820      0.9320
C      8.8404     -0.9483     20.3579
H      9.8567     -6.7540     14.8603
H      9.1903     -2.7204     17.7656
H      5.7947      1.6925     22.3241
C     12.4714      6.8596      7.8667
C     13.6297      3.3374      5.0292
O      8.6620     -7.3712     17.1062
C     11.3287     -5.1619     18.6225
C      6.1929      2.1225     20.3923
C      5.1720      2.3800     19.4936
C     16.2430      1.1537      5.8405
H      5.1231      3.7242      8.6865
H     12.8059     -2.5357     19.7393
C     14.7595      4.9411      6.9449
C      3.8379      5.6148      5.2357
C      3.0616      2.4377     22.2584
H     19.9210     11.2026      2.4080
C      8.3497     -6.2185     11.3167
H      3.3834      5.6311      8.7254
H     10.8225     -6.7944     11.3979
H      7.1429      2.7670     20.3664
C      4.2341      3.3389     17.6546
C     17.4077      9.6012      5.4646
C      7.1259      0.3200     21.6033
C      5.4518      4.5634      8.3392
C      5.9330      1.1323     21.3726
H     13.3918      2.7538      9.2393
H     18.8887      9.7460      0.1476
H      8.0328     -7.1258     11.8614
C     14.2283     -2.5504     13.6121
H      2.4278      4.4006     22.6936
H      9.4626     -3.6947     15.9939
