256

C     32.4796     -3.4485     13.7714
C      4.1972      1.4516      6.8089
C      2.9624      2.9734      1.1533
C      7.0204      5.3252      2.8893
H      9.8711     -9.6429      2.0165
C      7.4074      3.7075      2.9117
C     16.0717     -8.7696      5.5751
C     28.6929     -5.5371     19.4762
C      6.1228      2.1497      3.9579
C     27.0106     -4.2768     13.5779
N     -0.1018      2.8382      5.8283
C      0.9342      5.9808      0.4203
O     11.6722    -11.3153      2.5983
C     15.9392     -8.9464      7.0399
H      0.8604      5.7312     -0.6222
C     28.6062     -6.6769     17.3723
C     29.4515     -2.3557     16.6140
H      1.4822      0.0779      9.7753
H      9.5695    -10.7232      5.1398
H      6.0330      5.3889      3.3023
C     29.6352     -3.7311     16.2420
H      7.6783      3.9838      3.9285
H     25.3615     -5.5284     10.7383
H     12.0529     -7.9633      6.1926
H     11.6755    -11.5357      3.7891
C      2.9870      2.6528      7.3621
H     -3.8099      9.4793      0.5823
O     27.6549     -2.5019     14.8738
C      8.5420      0.6875      8.2819
C     19.4593     -6.6371      9.9774
H      2.6169      6.9517      8.8052
C      6.2221      2.9283      2.8421
H     19.1966     -8.1146      7.9179
H     -0.4146      7.9721      8.9454
H      5.5389     -2.6469      7.3877
C     30.5089     -2.1662     17.7460
C      9.9831     -4.6669      4.9160
O      1.6945      8.4875      4.7673
C     -1.9323      7.6214      6.9690
C     21.6570     -4.8107     12.1323
C     33.5309     -4.8228     13.3284
C      6.3965      7.2405     -0.2928
H      4.8112      3.4386      1.2796
H     29.7976     -3.0511     14.4935
H      2.1247     -0.7580      4.7553
H     -5.0601      5.0823      8.9600
H     28.6999     -2.1212     17.2496
H     11.1240    -11.7202      5.3354
C     19.8795     -6.1681     11.2873
C      7.9666      6.1589      3.4951
H     34.2060     -2.3802     13.9226
C     11.5645     -6.5288      4.9881
H     28.3073     -4.3638     21.0932
H      4.6264      1.3696      2.7971
H     30.3852     -6.0941     14.8434
C     10.1012     -1.8033      7.8023
C     18.2534     -6.9557      9.4785
C     28.7464     -5.1919     18.0207
C      4.6186      5.3842      0.7256
C     30.3148     -3.9294     15.0402
H      8.9830     -4.7277      4.6249
H      8.6254      8.0512      2.5693
H      4.0903      1.3205     10.4782
H      7.8660     -0.3834      9.4208
H     31.8474     -1.0451     19.1259
C     -0.1626      2.3987      8.2900
C     26.3812     -4.5546     12.2778
C      1.7650      1.8319      6.9840
C     -0.4482      6.2861      1.1556
H      5.6192      8.1005     -0.5023
H     10.4675    -10.1490      3.6383
H      6.9362      3.8897      4.7615
C     22.8287     -5.1589     13.0293
O     27.8268     -1.6372     12.5804
C     29.0318     -4.3706     20.2453
C      3.6409      1.1251      9.3559
C      3.3728      1.4777      4.5495
H     -2.6815     10.5694      1.9402
H      6.1343      0.1570      6.8332
H      4.2975      5.5149     -0.2083
C      3.9254      3.2689      3.1938
H      8.7102     -3.7148      5.9576
C     -2.2468      8.5819      0.9504
C     23.9377     -5.6470     11.8736
H      0.2208      8.8426      7.6346
C      5.3876      3.0473      4.9798
H     30.9438     -0.3726     17.1135
H      8.3268      3.5051      2.3269
H      8.7854      1.4107      7.5830
C      2.7288     -0.8340      8.2149
C      5.3876     -1.5790      7.8427
C     10.9318     -8.2220      3.1674
C     29.1498     -3.0624     19.4231
C      2.6205      3.5646      2.4585
H     29.1641     -4.9018     13.5065
H     11.0663     -8.7064      1.1543
H     25.7144     -3.7993     11.9255
H      1.6249      4.1518     -0.7818
O      5.4410      6.8207      6.8794
C      0.4706      7.9154      4.4727
H     29.4320     -2.3947     20.2776
C     10.2535     -4.4831      3.4340
C     10.9600     -5.3861      2.7240
C     -3.2992      7.1849      7.3674
H      1.6393      2.4365      4.6753
H     27.8295     -5.4833     10.7091
H      6.3212      2.4892      1.6741
H     -0.9012      3.2990      8.5867
C      3.5305      1.7891      1.0729
C      0.1008      8.6449      1.8919
C     11.6609    -10.2070      1.6022
C      0.2429      3.7951      3.6624
C      7.9773     -1.2701      7.1981
H      0.7904     -0.0360      3.6675
H     -4.0377      6.6178      6.5536
H     28.2738     -2.7705     18.8372
H     27.6534     -5.9970     13.6405
O      0.1953      9.0768      6.4269
C      6.6219     -0.6255      7.4443
C      0.2985      6.7003      6.7755
C     28.1674     -5.1181     13.9662
H     28.6793     -4.2620     15.9835
C      0.5554      7.5933      2.9924
H      9.0517      1.1899      9.0360
C      2.6357      0.8451      3.2619
C      0.4264      2.3775      6.8334
C     10.6856     -2.8647      6.9394
C     10.2663    -10.1834      4.7494
C     31.0868     -0.9318     18.0686
C      2.9523      3.4981      9.9965
C     13.1059    -10.0865      1.5037
C     -1.1363      7.8467      1.4322
C      4.2443     -0.8346      7.9464
N      1.7376     -0.4549      3.6136
H      3.4302      1.0948     -1.0515
C      3.0688      0.9806     -0.0647
O     29.9729     -6.7365     15.6425
C      9.3877      6.4932      1.0567
H     31.0273     -3.9812     19.3360
H      1.5207      0.6735      7.5919
C     10.7639     -9.2345      2.0002
C     -3.1935      7.3463      8.8511
H      2.0163      1.6110      5.9591
H      7.6714      4.6899      1.0956
C     -2.8246      9.8879      1.0172
H      0.8490      6.9137      9.4749
H     10.5814     -7.4467      6.6557
H     -1.0221      9.7187      4.5371
H     27.3885     -3.8950     10.4486
H      2.1385      1.5765     -0.0423
H      0.5249      3.0701      8.5361
C     27.9033     -5.4164     15.4704
H     17.3243     -6.5763      9.9307
O     12.0467    -11.9482      4.8257
O      0.1226      8.8087      8.8394
C     27.3184     -4.6528     11.2326
H      2.6284      2.8227     10.6260
H     29.7053     -1.7309     15.7056
C      4.2474      8.4579      4.6280
C      7.8166      7.3946      2.7971
C     33.2288     -2.1523     13.6786
C     31.6835     -3.8770     14.8450
C      4.0863      6.0721      6.6022
C      2.0390      4.9427      2.2326
C      5.7514      6.2433      0.8216
C      5.5993      7.6098      4.5130
C      8.0913      6.9255      1.2841
C     16.9652     -7.9091      7.5450
C      1.7284      4.9683      0.8795
H      8.0633      7.2035      5.5795
C      6.2304      7.3662      5.7073
H      9.4481      5.5403      0.2048
H     13.2385    -10.0158      2.8235
C      7.0772      5.7291      1.2116
H     -0.6785      4.1672      3.5237
O      7.4570      7.3897      6.2654
H     21.6043     -3.7339     12.0801
H      2.0577      1.4679      2.6870
H     -0.2211      9.5803      2.3551
H      4.7531      5.8052      4.8897
C     25.2661     -5.4084     11.8293
C     28.6978     -6.3700     16.0661
H      1.9465      5.2802      9.2120
C     10.3247     -8.4917      4.3659
C     13.1534     -6.3815      5.2334
H      3.2106     -0.3044      5.5758
C     14.2562     -7.1747      4.5633
H      4.2062     -0.0964      1.7001
H      1.0651      9.2006      8.8702
H     -0.5559      6.9285      8.8275
C     -5.2974      6.0582      9.0291
C      4.6102      0.7296      8.2182
O      6.0579      4.1740      5.1534
C      6.2735      7.8374      2.7543
C      9.6332     -3.3217      5.6860
C     -0.1420      6.1895      2.5932
C     11.5560     -6.7032      3.2839
H     30.0122     -4.5122     20.8391
H     28.2756     -3.9909     11.3529
H     26.7823     -1.6544     12.3729
H     11.3158    -10.2726      5.0334
C      2.5405      0.0550      9.1984
C      0.7467      5.0912      3.0414
C      4.9627      3.4119      2.3277
H     10.8437     -1.3094      8.6176
H      7.8665     -2.2155      6.4502
C      1.5840      6.2639      8.7911
C     10.8755     -7.7277      5.6222
C      3.7732      0.7227      2.2709
C     14.5733     -8.6740      5.4930
C      1.3960      6.0917      7.3261
C      2.4794      4.0318      0.1351
H     -1.1807      5.4489      1.0899
H      4.6735      2.1594      0.7900
H      3.0585     -0.2214      0.0955
H     11.7844    -12.2784      2.2071
H      5.6768      0.9893      3.7328
C     -0.6383      8.7224      5.1663
C     -4.1151      7.0032      9.7675
H      5.6228      6.9940      2.5347
H     32.6622     -1.8699     12.5544
C      9.1393     -0.5979      7.6425
H      9.9792      6.2700      2.0167
H      9.6296     -2.2354      5.0849
H      5.7909      1.8296      9.7955
C     -0.7258      6.9372      7.5868
C      0.8635      3.1209      4.8504
O      8.2120      5.7660      4.6597
C     -1.7459      7.7470      5.5687
C      6.2504      2.5389      7.5883
C      5.4059      2.3255      6.4014
C      3.6907      0.6770      5.5639
H     -5.5059      6.6248      8.3064
H      1.0381      9.3121      6.0845
C      1.5340      4.7349      6.9723
H     11.3280    -10.9827      0.4994
C      3.7839      5.3813      5.1643
C      3.2346      2.5820      8.9792
H     32.9540     -1.5010     14.4407
C     21.1795     -5.5769     11.0479
H     16.3708     -7.4112      8.1865
H     24.1099     -6.5412     11.3114
H      6.9457      3.2204      7.7162
C      3.8078      2.9331      4.6447
C     30.2908     -3.3640     18.4559
C      7.2175      0.2899      8.7924
C     18.1183     -8.0161      8.4152
C      6.0458      1.5104      8.6657
H     -0.3891      1.3956      8.4264
H     -2.0765      7.7500      9.0798
H     13.5342     -8.9086      1.3581
H     31.9969     -3.4849     12.7547
H     13.2223    -10.7400      0.6533
C     27.6889     -2.8388     13.6903
H      2.9658      4.5782      9.6307
H     10.1248     -3.4902      3.2037
