257

C     32.6309     -3.6704     13.6529
C      4.1298      1.8067      6.8109
C      2.9256      3.0036      1.4429
C      7.0807      5.3676      2.7717
H      9.5259     -9.6031      2.4189
C      7.3206      3.8015      2.8952
C     16.0878     -8.9890      5.4431
C     28.6263     -5.8308     19.5673
C      6.4436      2.0223      4.2652
C     26.8369     -4.3033     13.3620
N     -0.1073      2.9029      6.0400
C      0.9124      6.0014      0.1941
O     11.8697    -11.2620      2.5193
C     16.0918     -8.8201      6.9444
H      0.7079      5.6029     -0.7529
C     28.4800     -6.7951     17.2456
C     29.3776     -2.6721     16.5123
H      1.6362      0.5610      9.6183
H     10.5871    -10.6437      5.7485
H      6.1977      5.7794      3.3220
C     29.9562     -4.0736     16.3398
H      8.0008      3.5985      3.7322
H     24.9507     -5.6228     10.0721
H     11.9084     -8.2375      6.1787
C      2.8554      2.6408      7.5534
H     -3.8082     10.0525      0.9557
H      7.4398      2.2011      4.4090
O     27.7393     -2.4068     14.9302
C      8.5257      0.5360      8.1598
C     19.4491     -6.9304      9.9776
H      2.3851      6.3297      9.5788
C      6.4186      2.5697      2.7496
H     19.0182     -7.9225      7.6354
H      5.4093     -2.3665      7.5512
C     30.4039     -2.3207     17.6653
C      9.8979     -4.6423      5.0318
O      1.6819      8.6383      4.6822
C     -1.9968      7.2582      6.8418
C     21.4455     -4.6785     12.0513
C     33.2467     -4.9738     13.0509
C      6.2026      7.2853     -0.5043
H      4.5061      3.3343      1.5877
H     30.0704     -3.3487     14.6185
H      2.3178     -0.7711      3.1105
H     -4.3792      5.1158      8.9505
H     28.3172     -2.9612     16.5627
C     19.8376     -6.0923     11.1508
C      8.2058      6.2082      3.4715
H     34.0421     -2.4003     12.9672
C     11.7044     -6.5339      4.9420
H     28.5278     -4.0718     21.3948
H      4.5390      1.4582      2.5939
H     30.2692     -6.3471     15.7671
C     10.2134     -1.6528      7.6625
C     18.1645     -7.4244      9.5507
C     28.4955     -5.3388     17.8947
C      4.7105      5.4415      0.4037
C     30.5246     -4.1360     15.0718
H      8.9434     -4.7225      5.3881
H      8.4750      8.0051      3.2681
H      3.9946      1.0911     10.5951
H      7.3217      0.8116      9.5032
H     31.9853     -0.8667     18.4488
C     -0.1821      2.8276      8.6630
C     26.1764     -4.5342     12.0544
C      1.6096      1.9480      6.9898
C     -0.6038      6.4332      1.1933
H      5.3200      8.1781     -0.5501
H      9.0865     -9.7032      4.6138
H      7.0168      4.2820      4.5296
C     22.7540     -5.2170     12.7735
O     27.7404     -1.9934     12.6486
C     28.9109     -4.6605     20.3114
C      3.7140      1.1677      9.4425
C      3.4019      1.5633      4.6924
H     -2.3681     10.1534      2.3485
H      6.1079      1.1700      6.2785
H      3.9230      6.3596     -0.1347
C      4.0388      3.3533      3.3043
H      9.1407     -2.6834      5.3672
C     -2.4500      8.7552      0.6303
C     23.7295     -5.3575     11.6509
C      5.5844      2.9376      5.1597
H     30.6570     -0.4399     17.1661
H      7.9966      3.8579      2.0896
H      8.9492      0.8354      7.1582
C      2.9124     -0.6721      8.3879
C      5.4381     -1.3000      7.6154
C     10.7143     -8.1061      3.3360
C     29.0312     -3.2648     19.1180
C      2.7977      3.6452      2.5643
H      2.1390     -1.0339      7.6655
H     28.7723     -5.6352     13.4250
H     10.8488     -8.2610      1.4259
H     25.6817     -3.5140     12.1881
H      2.3601      3.7974     -0.9838
O      5.4313      6.8722      6.4857
C      0.6485      7.9168      4.4048
H     29.1324     -2.6296     19.9538
C     10.0329     -4.6600      3.5435
C     10.9226     -5.4754      2.9768
C     -3.1567      7.4273      7.5371
H      1.3757      2.6747      4.3625
H     27.6202     -5.7398     11.1333
H      6.7372      1.7163      2.2166
H     -0.5308      3.7289      8.8937
C      3.3382      1.5950      1.0966
C     -0.0293      8.6153      1.6406
C     11.5126    -10.2944      1.5340
C     -0.2476      3.6742      3.7244
C      7.7604     -1.0721      6.8314
H      0.8696     -0.1655      4.2780
H     -3.9476      7.8553      6.9909
H     28.1667     -3.0753     18.4072
H      1.5002      6.6712     -0.1352
O      0.0546      9.5257      6.5489
C      6.7021     -0.6630      7.7188
C      0.4441      6.6720      6.7863
C     27.9114     -5.1300     13.8756
H     28.9561     -4.5232     16.0987
C      0.5142      7.6299      2.7243
H      9.3020      1.0276      8.7309
C      2.5031      1.0778      3.5871
C      0.4006      2.7252      7.3096
C     10.5629     -2.8271      6.9638
C     10.2486    -10.2613      4.7337
C     31.1586     -1.1474     17.7044
C      2.9735      3.5577      9.8594
C     12.8718     -9.9556      0.8982
C     -1.2515      7.8893      1.2454
C      4.3721     -0.6254      8.2662
N      1.8123     -0.1463      3.8138
H      3.4897      0.9894     -1.1637
C      2.9862      0.8126     -0.0746
O     29.9740     -7.0878     15.4112
C      9.3466      6.5068      0.6289
H     31.1676     -3.4717     19.3348
H      1.6623      1.0061      7.6707
C     10.4747     -9.0382      2.1764
C     -2.9628      7.2628      8.9927
H      1.2689      1.5371      6.0107
H      7.5589      4.9713      0.6053
C     -2.7959      9.7825      1.3389
H      0.9874      7.3317      9.1564
H     10.3140     -7.3406      6.3247
H     -1.0837      9.4551      4.8729
H     27.6362     -4.5625     10.0819
H      1.9011      0.7524     -0.0920
H      0.7855      2.8294      9.0036
C     27.9178     -5.6447     15.1560
H     17.4076     -6.9704     10.3818
C     27.6118     -4.5821     11.2755
H      3.6884      3.4213     10.9127
H     29.8270     -2.2101     15.6259
C      4.2532      8.2641      4.7394
C      7.8650      7.5233      2.6405
C     33.2068     -2.3560     13.5480
C     31.9133     -4.0480     14.9341
C      3.9827      6.2113      6.4965
C      1.9653      4.7717      2.5497
C      5.8041      6.1124      0.4138
C      5.7721      7.5903      4.3532
C      8.0352      6.9417      1.2282
C     16.8864     -7.8836      7.5931
C      1.7005      5.0134      0.8474
H      7.3611      8.1778      5.3124
C      6.3017      6.8546      5.4866
H      9.4110      5.4828      0.5320
H     13.7558     -9.7869      1.1846
C      7.1233      5.8641      1.3376
H     -0.0535      3.0145      2.7961
O      7.2515      7.6865      6.1730
H     21.5856     -3.4600     11.7763
H      1.8704      1.9030      3.0009
H     -0.4567      9.3103      2.1635
H      4.7737      4.4020      0.8421
H      4.4571      5.5351      4.8160
C     25.1063     -5.4703     11.2110
H     -5.0007      5.5545      7.8254
O     -5.0951      5.2845      6.9125
C     28.5105     -6.8963     15.7129
H      0.7297      5.6923      9.2340
C     10.6323     -8.7621      4.5505
C     13.3647     -6.3035      5.2702
H      3.3398     -0.3457      5.8261
C     14.1126     -7.4111      4.6805
H      3.7351      0.0864      2.0386
H     -0.9663      6.3081      8.5122
C     -5.1851      5.9497      9.1120
C      4.6142      0.8625      8.2936
O      6.1761      4.2336      5.0318
C      6.3924      7.7670      2.9593
C      9.9451     -3.2834      5.6190
C     -0.1702      6.3835      2.4749
C     11.3796     -6.7069      3.4583
H     29.9823     -4.6245     20.6725
H     28.6733     -4.1011     11.5080
H     27.7174     -0.8918     12.9614
H     10.6085    -10.5738      3.6885
C      2.6998      0.1935      9.2922
C      0.5266      4.7876      3.2300
C      5.1919      3.2149      2.4497
H      1.1906      4.2124      7.4520
H     -4.9602      6.2669      6.5766
H     10.6014     -1.1354      8.6375
H      7.9213     -2.0699      6.5460
C      1.6537      6.4095      8.9844
C     11.1872     -7.8390      5.6382
C      3.6786      0.8672      2.4758
C     14.5556     -8.6413      5.2058
C      1.7772      6.2508      7.4234
C      2.4282      4.0846      0.3135
H     -1.4131      5.6566      1.1066
H      4.4244      1.8366      0.6603
H      3.1761     -0.1602      0.4320
H     12.6032    -11.6599      1.8949
H     11.4606     -3.4978      7.0918
H      5.6833      1.0420      4.0377
C     -0.6020      8.6684      5.2598
C     -4.2797      7.1040      9.6006
H      5.9346      7.0430      2.2723
H     32.5430     -1.9819     12.4853
C      9.0991     -0.7200      7.5828
H      9.7787      6.5004      1.6468
H     10.6833     -2.6386      4.8448
H     -5.4020      4.4476      6.4436
H      5.7507      2.0345      9.7367
C     -0.8012      6.4725      7.3833
C      0.5817      3.1231      4.8335
O      8.6034      5.8228      4.6433
C     -1.9041      7.5067      5.4951
C      6.2359      2.6570      7.7174
C      5.4058      2.2658      6.4439
C      3.8115      0.6727      5.6554
H      5.4433      3.3267      8.1173
H      0.5647     10.3403      6.4363
C      1.8383      4.8698      6.7885
H     10.7117    -10.5781      0.8534
C      3.6032      5.4837      5.1829
C      3.0724      2.4013      9.1703
H     33.3359     -1.8879     14.4614
C     20.9883     -5.1985     10.7279
H     16.5247     -7.1732      8.3791
H     23.0342     -5.7724     10.9166
H      7.2007      3.0864      7.5544
C      4.0869      3.0479      4.7031
C     30.4256     -3.5102     18.5586
C      7.1774      0.6259      8.5007
C     18.1671     -7.9357      8.3564
C      5.9278      1.5009      8.5956
H     -0.3718      1.7501      8.9006
H     12.4701     -8.9320      0.4026
H     31.4919     -3.2891     13.3717
H     13.0497    -10.5876      0.0753
C     27.6245     -2.8100     13.6536
H      2.4630      4.6172      9.4872
H      9.8127     -3.7975      2.8848
