248

C     32.6038     -3.7175     13.9444
C      4.0786      1.4695      6.9251
C      2.9583      3.1917      1.1231
C      7.0951      5.3816      2.9878
H      9.9123     -9.8968      2.1270
C      7.3596      3.8473      2.8770
C     16.1639     -8.6731      5.3656
C     28.6540     -5.5932     19.7524
C      5.9457      2.0531      4.0160
C     26.7663     -4.4229     13.5845
N     -0.3792      2.7809      6.0243
C      0.6828      5.8896      0.3091
C     16.2120     -8.8401      6.8785
H      0.4705      4.8085     -0.3853
C     28.5097     -6.6785     17.5256
C     29.6689     -2.1887     16.7882
H      1.4842      0.5175      9.1390
H      9.3181    -10.4440      4.6985
H      6.2004      5.2873      3.5685
C     29.4370     -3.5608     16.4554
H      7.7890      3.4812      3.9125
H     25.7430     -5.3807     10.7624
H     11.7704     -8.2902      6.1732
C      3.0563      2.7884      7.4742
H     -2.8703     10.2907      0.5776
H      6.8558      2.0508      4.4291
O     27.9758     -2.5059     14.6999
C      8.6059      0.2476      8.7364
C     19.6688     -7.0488      9.9797
H      1.5996      5.0957      8.7623
C      6.1818      2.9470      2.8569
H     19.0624     -8.2649      7.8226
H      5.8263     -2.5244      7.3278
C     30.5456     -2.1393     17.8614
C      9.8957     -4.4802      4.9964
O      1.8504      8.1795      4.7193
C     -1.9976      7.4819      6.8707
C     21.3810     -4.6459     12.1904
C     33.2894     -4.8013     13.2727
C      6.2409      7.1128     -0.3723
H     30.2909     -3.8815     14.0205
H      1.6241     -0.4244      2.5151
H     -4.3595      5.4119      8.3677
H     29.1508     -1.2914     17.3418
C     19.9325     -6.0996     11.1764
C      7.9225      6.3932      3.6653
C     11.7044     -6.5686      4.7557
H     28.2585     -4.0429     20.9604
H      4.7067      0.7754      2.2171
H     30.3865     -6.3232     15.1128
C     10.2360     -1.6767      7.7028
C     18.3426     -7.1161      9.6264
C     28.7721     -5.3674     18.1861
C      4.5421      5.8068      0.7433
C     30.4223     -3.8832     15.1916
H      8.9663     -5.0818      4.9055
H      8.9574      7.9880      3.4721
H      3.9433      1.0342     10.2670
H      6.5194     -0.1897      9.5590
H     32.2493     -0.7351     17.7742
C     -0.0283      2.2199      8.6394
C     26.1563     -4.4893     12.1878
C      1.5428      2.0265      7.0470
C     -0.5243      6.5964      1.1325
H      5.5097      7.8144     -0.5838
H     10.7788    -11.0413      4.0677
H      6.4960      4.4708      5.9842
C     22.7342     -5.2678     12.9448
O     27.7721     -2.4330     12.3210
C     29.0212     -4.2349     20.2879
C      3.5244      1.1849      9.3399
C      3.1670      1.6802      4.4923
H     -1.8756     10.2581      1.7803
H     31.6961     -0.4063     18.8616
H      4.0386      5.7702     -0.2893
C      3.8246      3.3698      3.0576
H      8.5702     -3.0200      5.3112
C     -2.3045      8.4879      0.8357
C     23.7470     -5.9387     11.9653
C      5.2301      2.8273      5.1208
H     30.9491      0.0729     17.4000
H      8.2453      3.4235      2.4660
H      8.8799      1.3198      8.2314
C      3.0807     -0.8791      8.2015
C      5.5569     -1.5596      7.6979
C     10.8045     -8.1564      3.0187
C     29.0541     -3.0349     19.4508
C      2.6413      3.6520      2.5008
H      2.4429     -1.3808      7.4372
H     28.6661     -5.3734     13.3217
H     10.4480     -9.0916      1.0192
H     25.9959     -3.5601     11.4135
H      2.1573      3.5994     -0.7796
O      5.5154      7.0129      6.8840
C      0.4467      7.9493      4.4893
H     29.7439     -2.1771     19.8592
C     10.4508     -4.4064      3.3870
C     11.0688     -5.4190      2.7842
C     -3.2378      7.0084      7.5677
H      1.1448      2.5614      4.6697
H     27.7583     -5.7327     11.1652
H      6.6880      2.1351      2.0234
C      3.5576      1.8174      0.9744
C     -0.0530      8.5714      1.8956
C     11.9789    -10.3290      1.5933
C      0.1189      3.7085      3.8302
C      7.8226     -1.3388      7.2029
H      0.9877     -0.3417      3.7868
H     -4.2238      7.1726      6.8527
H     28.1910     -3.1029     18.6406
H      1.1382      6.2396     -0.5938
O      0.3171      9.2266      6.2492
C      6.6701     -0.6508      7.3600
C      0.2789      6.6758      6.5878
C     27.9742     -5.2812     14.1734
H     28.2638     -3.7968     16.6311
C      0.4800      7.5297      3.0977
H      9.0908      0.3275      9.5876
C      2.3659      0.9317      3.2809
C      0.2340      2.4520      7.1468
C     10.7939     -2.6046      6.8377
C     10.3981    -10.1361      4.4620
C     31.2426     -0.7086     18.0614
C      3.3189      3.6030      9.9332
C     13.2774     -9.9244      1.3804
C     -1.2740      7.8023      1.4311
C      4.4263     -0.7625      8.0744
N      1.8213     -0.3270      3.4282
H      3.8919      0.5453     -1.0439
C      3.0020      1.1397     -0.4799
O     30.0564     -6.5233     16.1026
C      9.2812      6.5323      1.1146
H     31.0119     -3.6608     19.3724
H      2.0841      1.2094      7.7860
C     10.8343     -9.3363      1.9213
C     -3.0355      7.3690      8.8612
H      1.6412      1.1527      6.3456
H      7.1278      5.2673      0.7893
C     -2.5168      9.6830      1.2229
H      1.9007      6.4884      9.4996
H     10.0146     -7.6490      5.8295
H     -0.8743      9.5040      4.3628
H     27.0213     -4.5948     10.3435
H      2.8637      1.7689     -1.3486
H      0.2172      3.2830      8.9494
C     27.9325     -5.3459     15.5724
H     17.7056     -7.2580     10.4366
C     27.5181     -4.6273     11.3275
H     30.0927     -1.7122     15.8418
C      4.1502      8.5968      4.7265
C      7.8842      7.7678      3.0151
C     33.1569     -2.2890     13.6529
C     31.7516     -4.0021     15.2435
C      4.2218      6.1829      6.5517
C      1.9247      4.9260      2.3160
C      5.8049      6.1950      0.7795
C      5.5518      7.9705      4.6388
C      7.9427      7.1240      1.4835
C     17.0543     -7.8159      7.6285
C      1.8442      5.1063      0.9157
H      7.9915      8.8868      5.9467
C      6.2360      7.7838      5.8052
H      9.4543      5.6830      0.7536
H     13.0850     -9.9073      2.6094
C      6.9869      5.9078      1.5665
H     -0.8904      3.2867      3.5530
O      7.6221      7.9190      6.1246
H     21.3645     -3.7068     11.9111
H      1.7193      1.5262      2.8028
H     -0.0911      9.5350      1.9677
H      3.9726      5.0371      1.3676
H      4.7244      5.5266      4.4184
C     25.1550     -5.2835     11.7213
C     28.7414     -6.2377     16.1241
H     -0.0669      6.3598      9.4786
C     10.9498     -8.7065      4.2715
C     13.1142     -6.3839      5.1720
H      3.5371     -0.0879      6.4755
C     14.1638     -7.2621      4.7137
H      3.4034     -0.2870      1.7349
H     -0.6996      6.5374      8.4171
C     -4.8248      6.0675      9.1976
C      4.6114      0.9285      8.2765
O      5.9774      4.3014      5.0852
C      6.3527      8.0190      3.2739
C      9.5808     -3.1579      5.8218
C     -0.0820      6.1425      2.6093
C     11.5017     -6.7247      3.2049
H     29.7740     -4.2060     20.9155
H     28.1331     -3.6131     11.5752
H     26.6143     -2.5314     12.2200
H     10.8099    -10.3975      5.5183
C      2.4143      0.4603      8.6925
C      0.6426      4.9855      3.3744
C      5.0697      3.5734      2.4452
H      1.4088      4.1431      7.9154
H     10.9091     -1.5640      8.7058
H      7.5986     -2.4341      6.8345
C      1.1657      6.0531      9.0081
C     11.0724     -7.8171      5.5226
C      3.5408      0.8371      2.1369
C     14.5949     -8.5354      5.4131
C      1.3123      6.1923      7.4223
C      2.3310      3.8796      0.2643
H     -1.2412      5.8483      0.9837
H      4.4882      2.1123      0.8869
H      2.0818      0.6213     -0.0926
H     11.2859     -3.3080      7.3951
H      4.9296      1.2516      4.0066
C     -0.5481      8.7183      5.1486
C     -3.9387      7.0492      9.8268
H      5.9492      7.1876      2.8246
H     33.1551     -2.2016     12.7011
C      8.9745     -0.9689      7.7770
H      9.8312      6.4922      2.1318
H      9.9171     -2.5728      4.8189
H      6.0035      2.0635      9.4042
C     -0.7688      7.1690      7.5205
C      0.5254      3.2857      5.2100
O      8.3135      6.0840      4.8442
C     -1.7438      7.7268      5.4220
C      6.2452      2.5081      7.2750
C      5.2579      2.2803      6.4104
C      3.3333      0.8230      5.7509
H     -5.3934      6.9075      8.6821
H     17.7281     -8.8605      9.2821
H      0.8366      9.8290      5.4987
C      1.8325      4.8798      7.0899
H     11.4621    -11.0139      0.6001
C      3.8213      5.6466      5.2352
C      2.8367      2.6881      8.9726
H     32.6301     -1.8092     14.4864
C     21.1555     -5.4746     11.0100
H     23.5124     -6.4605     10.9318
H      7.1058      3.4293      7.3264
C      3.8713      2.9770      4.4680
C     30.3069     -3.1778     18.6569
C      7.0476      0.3380      8.5815
C     18.1617     -8.2664      8.4902
C      6.0247      1.5274      8.3811
H     -0.1465      1.2628      8.9748
H     -2.2787      7.7973      9.5075
H     13.3722     -9.2761      0.5075
H     31.5868     -3.5128     13.4750
H     13.7965    -10.8049      0.9774
C     27.4883     -3.0908     13.7797
H      2.9525      4.6450      9.7368
H     10.1480     -3.3817      2.6740
