251

C     19.5288      9.0398     13.8703
C      3.9608      1.7474      7.0950
C      2.9415      3.2940      1.2373
C      6.5949      5.2937      2.9558
C      7.5316      3.8028      3.0533
C      3.3469      4.2181      5.5885
C      7.1491      9.4099     10.5378
C     15.8890      7.2345     19.4697
C      6.0697      1.8889      4.3992
C      6.5824      8.1539     10.1154
C     13.9438      8.6137     13.4229
N     -0.1136      3.2113      6.2551
C     13.5581     -6.9468      0.6339
C      3.4250      4.2244      7.1828
H     13.4286     -7.3809     -0.3865
C     15.7177      6.3133     17.3479
C     16.6189     10.9244     16.7282
H      1.0388      0.5546      9.3636
H     -1.4756      2.2936      5.1712
H      5.5915      5.3862      3.5585
H      5.4029     10.2570     10.8053
C     16.7192      9.5468     16.3423
H      8.0939      9.6206     10.1355
H      8.2919      3.8026      3.7623
H     -0.8601      5.0507      6.5926
C      3.1115      2.7142      7.7565
H      9.6032     -3.1002      0.1193
H      6.9288      1.3718      4.9094
O     15.0344     10.6878     14.5900
C      8.3005      0.5314      8.2990
H     15.5492     -7.7404     -0.3777
C      7.0395      5.5787     10.2193
H     15.6289     -7.0962      8.7994
C      6.3040      2.6660      2.9234
H      6.3650      5.4398      7.3342
H      7.4114      9.1816     11.5183
H      4.8095     -2.6487      7.9528
H      5.1340      7.2575      8.9818
C     17.4258     10.9908     17.7722
C     10.0355     -4.5451      5.1744
O     14.7323     -4.3001      5.0727
C     11.2674     -5.1568      7.4156
C      8.6088      8.0846     12.3333
C     20.2565      7.8841     13.1181
C      6.3478      7.3985     -0.7570
H      5.3965      4.0433      1.6860
H     17.9978     10.3836     14.6811
H      1.9016      0.1280      2.4744
H      8.0035     -7.3262      8.0615
C      7.0189      6.8393     10.9958
C      7.6727      6.2229      3.4446
H     21.3041     10.3114     14.6976
C     -1.1037      6.4325      5.1832
H     15.6033      8.7260     21.2018
H      4.7425      1.1166      2.8361
H      6.4714     11.4812     10.9841
H      4.0866      7.2204     -0.2132
C      9.9213     -0.8699      7.0296
C      5.7916      5.2116      9.6283
C     15.8524      7.6941     18.1198
C      4.3774      6.4758      0.2396
C     17.4466      9.3364     15.0546
H      9.2076     -5.3936      5.4465
H      7.8585      8.6349      3.1239
H      3.0216      0.3799     10.1329
H      6.9439      0.1894      9.8608
H     18.3112     13.0013     17.6381
C     -0.4082      3.1695      8.4548
C     13.2145      8.3968     12.1056
C      1.7201      2.3072      7.4121
C     12.4408     -6.4777      1.3077
H     -2.7432      2.8802      5.6446
H      6.2536      4.6423      5.8920
H      6.0174     11.3042      9.2663
C      9.9135      7.6141     13.1129
O     15.0323     10.9874     12.4011
C     16.4413      8.6703     20.2582
C      3.1932      1.1027      9.2450
C      3.1959      1.9167      4.6259
H     10.5835     -2.2231      1.2808
H     18.8492     12.0166     19.3892
C      4.0430      3.6456      3.2358
H      8.7838     -3.7898      5.7974
C     10.5638     -4.4040      1.0715
C     10.8414      7.3936     11.9693
H     10.4734     -3.0104      7.4657
C      5.4126      2.8391      5.1937
H     15.7682     10.6946     11.8159
H     17.1754     12.6446     19.1509
H      8.0303      4.0952      2.1042
H      8.4207      1.5551      7.6402
C      2.5387     -0.8599      8.1415
C      5.1546     -1.6767      8.0376
C     -1.7192      4.9322      3.3155
C     16.1355      9.8648     19.4413
C      2.9015      3.9416      2.5184
C      5.0943      8.1481      9.4875
H      1.7918     -1.5306      8.0058
H     15.9071      8.9820     13.6308
H     -2.5229      5.0498      1.2718
H     14.7568     -9.0413     -0.9659
O      5.3223      7.1622      6.3692
C     13.5129     -5.0134      4.4796
H     16.2765     10.5989     19.9743
C     10.3520     -4.5299      3.7431
C     11.1574     -5.4124      3.0953
C     10.1363     -5.4481      7.8104
H      1.6079      2.1839      5.1266
H     14.1482      7.1310     10.6075
H     -1.6192      2.8973      8.4298
C      3.8581      2.2967      0.8315
C     12.9698     -4.3162      1.9101
C      0.1054      3.6145      3.9625
C      7.3413     -1.6904      7.3482
H      1.1400      0.0866      3.9281
H      9.1949     -5.1214      6.9638
H     15.1455     10.0149     19.1464
H     15.5694      7.0554     13.6285
O     13.2321     -3.5291      6.4111
C      6.3368     -1.0178      7.8918
C     13.5136     -6.1973      6.6687
C     15.2652      8.1035     13.9328
C     13.7196     -5.2285      2.9143
H      9.4313      0.8091      9.0268
C      2.7682      1.4935      3.2626
C      0.5287      2.9661      7.3461
C     10.3596     -2.3051      6.5226
C     -2.2530      2.8842      4.6919
C     17.8994     12.1810     18.3830
C      3.3910      3.5096     10.2184
C     11.6571     -5.1859      1.7340
C      3.9816     -0.7969      8.0468
N      2.0383      0.4037      3.4763
H      2.3305      1.1390     -0.1096
C      3.2961      1.6137     -0.4671
O     17.1284      6.1158     15.6392
C      9.1666      6.5853      1.1888
H     18.3842      9.2255     19.2838
H      1.3472      1.4072      7.9804
C     -2.3067      4.5060      2.1756
C     10.1438     -5.6092      9.2533
H      7.1438      5.0332      0.7920
C     10.1595     -3.1095      0.9805
H      5.4719      9.1814      9.0479
H     15.3758     -5.7666      9.3184
H     -2.5848      5.2118      6.2290
H     11.9971     -3.3949      4.6801
H     14.3224      9.1112     10.4875
H      3.8792      0.5733     -0.8530
H     -0.5204      4.1666      8.0441
C     15.2242      7.6357     15.3425
H      4.9222      5.1488     10.1829
C     14.4117      8.0613     11.1217
C      6.4031     10.6978     10.2105
H      2.8620      3.5229     11.2773
C      4.2833      8.5850      4.6871
C      7.5295      7.4955      2.8020
C     20.3472     10.1877     14.5325
C     18.5505      8.3952     14.8654
C      4.1460      6.1965      6.6002
C      1.8948      5.0701      2.4800
C      5.7443      6.3783      0.4100
C      5.3251      7.7760      4.2676
C      7.7686      7.0707      1.4607
C      4.3406      5.3096      7.7479
C     14.5408     -7.7687      1.2148
H      9.1678      5.2150      3.8863
C      6.2424      7.3156      5.3462
H      8.8745      5.9560      0.5955
C      6.6675      5.7485      1.4222
H     -0.3560      3.1342      3.0414
H     10.9049     -6.2448      9.5393
O      7.3571      7.1342      5.8143
H      8.6191      9.1950     12.0463
H     12.2877     -3.2384      1.9176
H      3.6984      5.9785      0.9218
H      4.8134      5.2497      4.5838
C     12.1789      7.6667     11.7875
C     15.8824      6.3576     15.8980
H     13.5358     -6.2340      9.1947
C     -1.4511      4.0230      4.5139
C      0.4469      6.6094      5.1452
H      3.9822      8.1067      9.9960
H      2.7875      0.0998      5.7163
C      1.4498      5.5704      4.7274
H      3.3052      0.1771      1.5222
H     12.0479     -6.7518      8.4663
C      8.0571     -7.0030      9.2295
C      4.3761      0.8240      8.2066
O      6.3825      3.8361      5.3557
C      6.0958      7.8639      3.0693
C      9.7237     -3.0027      5.3892
C     13.0067     -6.6189      2.7808
C     -1.4731      6.2581      3.7585
H     17.4149      8.5715     20.7562
H     15.2992      8.3640     11.5891
H     -2.1607      2.2585      3.9524
C      2.0030      0.2842      8.7109
C      0.6699      5.0504      3.4566
C      5.1520      3.2907      2.3891
H     14.0897     -8.2461      8.0144
H     10.8214     -0.9303      7.7977
H     15.9453     10.5905     14.9384
H      7.4053     -2.8354      6.8615
C     14.7756     -6.4102      8.6389
C     -1.5374      5.1092      5.7205
C      3.7975      1.1879      2.0319
C      1.8471      4.4118      5.5269
C     14.7295     -6.5994      7.2783
C     15.0980     -8.6779      0.1419
H     11.6023     -7.1320      1.5190
H      4.9531      2.6273      0.4424
H      3.1939      2.1599     -1.2669
H     11.5022     -2.1478      6.0148
H      5.1828      1.3300      3.6826
C     12.4239     -4.1496      5.2425
C      8.8945     -6.1575      9.8390
H     17.3142      6.4450     14.7278
H     20.7438     10.6842     13.4517
C      8.5093     -0.7545      7.5117
H      9.2952      6.2091      2.3308
H      9.5043     -2.3729      4.6292
C     12.4984     -6.2022      7.6102
C      0.7868      3.1375      5.1624
O      8.6732      5.8286      4.4583
C     11.2874     -5.2054      5.8449
C      6.4146      2.1950      7.3302
C      5.3133      2.1931      6.4539
C      3.1581      1.1735      5.6791
H      5.6235      3.7422      8.1261
H     12.6517     -2.7853      6.3566
C     14.8368     -8.1316      7.0269
C      3.9275      5.4888      5.3516
C      3.3047      2.5841      9.2702
H     19.7506     11.2825     15.0769
C      8.4740      7.2685     11.0356
H      3.8637      6.2099      8.2073
H      7.3954      2.8049      7.2964
C      3.9603      3.2204      4.7249
C     17.3859      9.7768     18.6553
C      6.8531      0.1453      8.7196
C      5.6700      4.8620      8.0010
C      5.9301      1.2451      8.4358
H     -0.4742      3.5263      9.7434
H     10.3128     -4.6077      9.7368
H     10.1776     -0.0019      6.6205
H     19.3037      9.8832     13.0284
H      9.0160      6.1923     10.9843
C     14.3033     10.3817     13.4022
H      3.4386      4.5546      9.7818
H     10.5550     -3.6028      3.1000
