251

C     19.4522      9.0567     13.9712
C      4.0360      1.5986      6.9947
C      2.8433      3.2801      1.0843
C      6.8486      5.3053      2.9461
C      7.6394      3.9453      3.0858
C      3.3222      4.3225      5.3962
C      7.0191      9.4854     10.5370
C     15.9174      7.2672     19.4903
C      6.0945      2.0229      4.3053
C      6.4480      8.1114     10.1128
C     13.8085      8.5555     13.4898
N     -0.0040      3.1189      6.2605
C     13.4651     -6.8232      0.5454
C      3.2071      4.3430      7.1680
H     13.2649     -6.8131     -0.4028
C     15.5989      6.2719     17.3894
C     16.7470     10.9701     16.4834
H      1.0554      0.1653      9.3540
H     -1.2660      1.9977      4.8934
H      6.0595      5.5676      3.7389
H      5.4088     10.6625     10.6067
C     16.6926      9.5396     16.2519
H      8.1465      9.3072     10.3403
H      8.2673      3.8660      4.1960
H     -0.7608      5.0779      6.4986
C      3.1067      2.7353      7.6495
H      9.4243     -3.0051      0.1666
H      7.1740      1.8466      4.7669
O     15.0023     10.6122     14.7415
C      8.3127      0.5837      8.2489
H     15.7286     -8.0497     -0.2403
C      6.9872      5.8136     10.2354
H     15.3530     -7.1932      9.2267
C      6.4063      2.6802      3.0591
H      6.4789      5.2204      7.5035
H      7.2923      9.5093     11.6633
H      5.3391     -2.5818      7.7170
H      4.6988      7.2689      8.9047
C     17.2690     11.0530     17.8337
C     10.0740     -4.3892      5.2281
O     14.7537     -4.4310      4.9598
C     11.3476     -5.3528      7.1959
C      8.6580      8.0599     12.4725
C     20.3372      8.0217     13.1694
C      6.2992      7.4335     -0.5598
H      4.8966      3.9757      1.6489
H     17.5026      9.9927     14.0975
H      1.4384     -0.1503      2.4428
H      8.5678     -7.3391      8.1639
C      6.9660      7.0220     11.0303
C      7.7706      6.2499      3.5377
H     21.1129     10.0692     15.0424
C     -1.1776      6.4433      5.1414
H     16.1969      8.1063     21.4006
H      4.8411      0.9275      2.1062
H      6.7709     11.4303     10.7300
H      3.8015      6.9398     -0.4185
C      9.9597     -0.9612      7.1380
C      5.8510      5.3732      9.5928
C     15.9947      7.7765     17.9132
C      4.5153      6.5308      0.3365
C     17.5100      9.5684     15.0588
H      9.1186     -4.8934      5.0963
H      8.4915      8.0971      2.9995
H      3.8713      1.1181     10.3574
H      6.9446      0.3499      9.7271
H     18.1683     12.7626     17.3958
C     -0.1951      3.2748      8.4522
C     13.3311      8.3350     12.1276
C      1.7952      2.2159      7.2470
C     12.4147     -6.5261      1.5238
H     -2.8705      3.0572      5.2713
H      5.9107      4.7278      5.8774
H      6.2362     11.0413      9.4192
C      9.8211      7.5358     13.1334
O     15.0128     11.1073     12.6600
C     16.2851      8.4125     20.2086
C      3.2539      1.1165      9.4105
C      3.1681      1.8348      4.4017
H     10.5088     -2.3220      1.4389
H     18.9081     12.5415     19.0283
C      3.9405      3.6036      3.2394
H      8.5585     -2.9718      6.1603
C     10.6128     -4.4019      1.0772
C     10.9337      7.1542     12.0478
C      5.3225      2.9442      5.1038
H     17.7539     13.0123     19.0167
H      8.1513      3.5974      2.0647
H      8.4261      1.8533      7.7294
C      2.7919     -0.8124      8.1617
C      5.0473     -1.6072      8.0526
C     -1.8007      5.0133      3.3984
C     16.2422      9.7958     19.5447
C      2.9683      3.9179      2.2857
C      4.9399      8.0184      9.5379
H      2.4473     -1.4129      7.4820
H     15.9027      9.0488     14.0076
H     -3.0300      5.1615      1.6322
H     14.6994     -8.9426     -0.9048
O      5.1960      7.1025      6.4150
C     13.6689     -5.0438      4.3869
H     16.4353     10.6361     20.1592
C     10.3645     -4.4477      3.7864
C     11.2021     -5.2828      3.1667
C     10.0735     -5.3782      7.8444
H      1.6792      2.1807      5.0135
H     14.3239      6.8778     10.9186
H     -0.7894      2.2196      9.1417
C      3.7516      2.1858      0.8266
C     13.0737     -4.3286      1.9499
C     -0.0066      3.7389      3.9220
C      7.4573     -1.5049      7.4757
H      1.2419      0.1325      4.2434
H      9.1612     -4.7269      7.4033
H     15.4884      9.7867     18.7262
H     15.2829      7.4853     12.9603
O     13.4948     -3.6549      6.3610
C      6.4310     -0.9661      8.1059
C     13.4957     -6.2355      6.6807
C     15.2209      8.0703     13.9563
C     13.7437     -5.3042      2.9793
H      9.1184      0.5896      9.0220
C      2.5179      1.5063      3.1901
C      0.5369      3.0070      7.3249
C     10.5398     -2.2371      6.6246
C     -2.1183      2.7697      4.5482
C     18.0109     12.3244     18.3186
C      3.4335      3.5970     10.0493
C     11.6574     -5.1971      1.7678
C      4.0823     -0.7958      8.1200
N      1.9465      0.2099      3.4344
H      2.2565      1.2625     -0.2330
C      3.2591      1.3535     -0.2751
O     17.2368      6.1037     15.7615
C      9.1222      6.5414      1.1368
H     18.2646     10.0430     19.1020
H      1.4783      1.1151      7.6830
C     -2.5249      4.3121      2.2647
C     10.1573     -5.6188      9.2391
H      1.5314      1.4252      6.4728
H      7.3740      4.8794      1.0316
C     10.1166     -3.2344      0.8454
H      5.4174      9.0118      9.4389
H     15.5883     -5.5223      8.9676
H     -2.4650      5.3130      5.9864
H     12.2840     -3.4583      4.3774
H     14.2913      8.6053     10.1661
H      3.9729      0.6264     -0.5430
H     -1.2105      3.9818      8.2070
C     15.1632      7.6345     15.3168
H      4.8983      5.5980     10.2914
C     14.2818      7.9382     11.1212
C      6.3324     10.7158     10.2941
H      3.5052      3.4377     11.0550
C      4.1179      8.6056      4.6382
C      7.5074      7.4962      2.9478
C     20.2681     10.3603     14.4499
C     18.4649      8.4461     14.7979
C      4.1079      6.2466      6.5078
C      1.9954      4.9955      2.5330
C      5.8620      6.4187      0.3444
C      5.3333      7.7555      4.1377
C      7.6999      6.9635      1.4291
C      4.2149      5.2678      7.7876
C     14.5038     -7.5251      1.0810
H      9.3480      5.2308      3.8216
C      6.0609      7.1066      5.4030
H      9.2228      5.5706      0.8701
C      6.7831      5.8954      1.3790
H     -0.3975      3.1423      2.9496
H     10.8481     -6.4502      9.4037
O      7.2454      7.1648      5.8270
H      9.2435      9.0739     12.1193
H      1.9962      2.4729      2.7871
H     12.9984     -3.3773      2.5372
H      3.6520      6.0676      0.8241
H      4.7086      5.7783      4.4998
C     12.1243      7.5573     11.8572
C     15.7529      6.3853     15.8600
H     13.7996     -6.5029      9.1792
C     -1.3059      4.0883      4.5791
C      0.3476      6.5577      5.2501
H      4.2966      7.7192     10.3855
H      2.7062      0.3412      5.9549
C      1.3785      5.6198      4.6549
H      3.9897      0.0674      1.4224
H     12.2135     -6.4308      8.6590
C      8.1146     -6.9231      9.1886
C      4.2971      0.7290      8.2207
O      6.2264      3.9473      5.2218
C      6.0608      7.8495      3.0573
C      9.5780     -2.8793      5.4479
C     12.8892     -6.6624      2.8521
C     -1.3199      6.4335      3.6949
H     17.3452      8.3673     20.5833
H     15.2718      8.4415     11.5616
H     -2.9009      2.8036      3.6554
C      2.0183      0.2188      8.7403
C      0.7191      5.0575      3.4739
C      5.2428      3.2473      2.6002
H     14.1328     -8.3192      8.0918
H     10.5847     -0.5039      7.8009
H     15.4829      9.8318     14.4745
H      7.3377     -2.4675      6.8271
C     14.8986     -6.3530      8.7472
C     -1.4309      5.0261      5.6941
C      3.6969      1.1495      1.9290
C      1.6740      4.4875      5.5182
C     14.7980     -6.5520      7.2151
C     15.0879     -8.6579      0.1011
H     11.8502     -7.3055      0.9335
H      4.8302      2.4829      0.4979
H      3.4586      1.8882     -1.3050
H     11.2709     -2.1354      6.0614
H      5.5875      1.3195      3.9762
C     12.5905     -4.3568      5.2453
C      8.9305     -6.0037      9.9088
H     17.3347      5.8122     14.8772
H     20.9444     10.7382     13.5900
C      8.6025     -0.8919      7.2637
H      9.7360      6.5156      2.0132
H      9.5135     -2.4040      4.4183
C     12.3802     -6.0972      7.7099
C      0.9011      3.0874      5.0733
O      8.6794      5.7311      4.4381
C     11.3693     -5.1053      5.7663
C      6.2561      2.2350      7.3725
C      5.3292      2.1217      6.4349
C      3.3388      1.1876      5.7325
H      5.5868      3.4945      7.6785
H     12.8730     -2.8106      6.4000
C     14.7164     -8.1165      7.1348
H     -1.5238      3.7678      1.6870
C      3.8597      5.6679      5.1219
C      3.1099      2.5811      9.2396
H     19.8388     11.1165     15.0541
C      8.3665      7.3206     11.1503
H      3.9683      6.0082      8.3945
H     11.0223      6.1095     11.7506
H      7.2530      2.3185      7.0924
C      3.9059      3.0848      4.6162
C     17.2592      9.8089     18.6300
C      6.9558      0.2992      8.6002
C      5.5993      4.8307      8.0808
C      5.6738      1.2743      8.3527
H      0.1214      3.6864      9.3987
H     10.4766     -4.9184      9.8240
H      9.9898     -0.3752      5.9513
H     18.9672      9.4955     13.1390
C     14.3640     10.4160     13.4152
H      3.2156      4.4526      9.4978
