248

C     19.7346      9.0620     13.9756
C      3.9638      1.9570      6.8500
C      2.2943      2.9200      1.2416
C      7.1339      4.9242      2.4646
H     -3.2823      3.6658      2.7888
C      7.3524      3.4596      2.7593
C      3.0949      4.1023      5.3724
C     15.9553      7.2790     19.4608
C      5.8326      1.8209      3.8441
C     13.6997      8.6224     13.7414
N     -0.2137      2.8446      6.8280
C     13.3627     -6.9223      0.3939
O     -1.3634      2.1701      2.2615
C      3.1770      4.1209      6.8832
C     15.4603      6.2013     17.4407
C     16.5491     10.6322     16.5735
H      1.3511      1.1155      9.7417
H     -3.3081      3.4741      5.5512
H     17.4257      6.7068     16.7510
C     16.7967      9.2995     16.2051
H      8.2854      3.4643      3.5638
H     12.4575      7.9697     10.3128
H     -1.7448      5.0704      7.0042
C      2.8052      2.7784      7.6841
H     10.3112     -2.4782      0.3227
H      6.6125      1.0434      3.8657
O     14.7072     10.1148     15.2363
C      7.9327     -0.2455      8.6515
C      6.6490      6.1540      9.8492
H     16.1299     -5.9306      9.1742
C      6.2342      2.5676      2.6173
H      5.1024     -2.8067      8.1778
C     17.5290     10.8319     17.7135
C     10.1989     -4.2403      4.8032
O     14.7331     -4.3927      4.9346
C     11.4902     -5.1856      6.9688
C      8.9913      8.3698     11.8845
C     20.3396      7.8308     13.1416
C      6.2209      7.2504     -0.4754
H      4.7691      4.2110      1.6546
H     17.5330     10.3237     14.4365
H      1.6111     -0.4744      2.8799
H      7.8571     -7.1583      8.2044
C      6.5787      7.1731     10.8573
C      7.8989      5.6859      3.2206
H     21.2079      9.4154     15.4522
C     -1.2050      6.6163      5.1488
H     14.7582      8.8159     20.8743
H      4.0804      0.3002      1.9707
H     15.1021      6.8239     13.5976
C      9.5972     -1.0319      6.9358
C      5.8254      5.1881      9.3064
C     15.6653      7.5044     18.0628
C      4.4963      6.5199      0.8295
C     17.7957      9.4585     15.0672
H      9.0756     -4.7146      4.7971
H      8.6811      7.8638      3.3485
H      3.7022      0.7566     10.3276
H      6.2342     -0.5240      9.4114
H     17.5627     12.5527     17.2519
C      0.1852      3.8180      9.1215
C     13.3411      8.1558     12.0539
C      1.6430      1.7791      7.8074
C     12.1496     -6.5294      1.1894
H      5.1316      7.8278     -0.5707
H     -2.7555      2.7679      3.7407
C     10.0629      7.6300     12.6994
O     14.5884     11.0667     13.1601
C      6.6355     -4.2098      7.9635
C     15.8557      8.6655     20.2272
C      3.4133      1.3235      9.4279
C      3.3433      1.7149      4.5488
H     11.6581     -2.8865      1.6035
H      5.6824     -0.3486      6.7006
C      3.7876      3.4892      3.1619
H      9.2907     -3.9920      6.3238
C     10.7991     -4.4701      0.6938
C     10.9937      7.2321     11.7298
H     10.8256     -2.6486      7.2721
C      5.4205      2.8284      4.9689
H     18.7792     11.8246     18.4248
H      8.6702      0.4075      8.5858
C      2.4822     -0.6953      8.6196
C      4.7924     -1.6718      8.0553
C     -1.9838      5.0548      3.4484
C     16.2758      9.7509     19.3103
C      2.4867      3.6671      2.4816
H      2.3097     -1.3184      9.5363
H     15.9744      8.6537     13.6749
H     -3.3186      5.0103      1.8049
H     15.0749     -8.4833     -0.8067
O      5.5582      7.0605      6.4597
C     13.5512     -5.0905      4.4860
H     16.4225     10.6241     20.0744
C     10.5148     -4.1929      3.4336
C     10.7271     -5.3260      2.8830
H      5.6092     -4.5330      7.5177
C     10.1048     -5.3374      7.6037
H      0.9967      2.2644      5.0241
H     14.6432      7.6936     10.5999
H      5.9901      2.1455      1.8529
H      1.1191      4.1033      9.4769
C      3.2532      2.0639      0.6905
C     12.8291     -4.5318      1.9660
C     -0.3063      2.8622      1.9880
C     -0.1928      4.0578      4.1799
C      7.3168     -1.8385      7.2857
H      1.4435      0.4517      4.6629
H      9.1582     -5.2067      7.0521
H     15.6473     10.0016     18.6270
H     13.1145     -6.2705     -0.5164
O     12.9774     -3.6034      6.3574
C      6.0311     -1.0753      7.5337
C     13.6833     -6.0434      6.7592
C     15.1517      7.8522     13.9536
C     13.6695     -5.4177      2.8854
H      7.8375     -0.9261      9.6817
C      2.6140      1.3117      3.3261
C      0.3968      2.5862      8.1319
C     10.5351     -2.0377      6.5625
C     -2.6913      3.2889      4.7198
C     18.3908     11.9003     17.5255
C      3.3506      4.1110      9.7106
C      0.9190      2.2248      1.5148
C     11.5625     -5.2262      1.6986
C      3.8532     -0.7982      8.5058
N      1.9687      0.2015      3.6936
H      3.2470      2.3583     -1.4854
C      3.2064      1.5074     -0.6667
O     17.1584      6.0047     16.0886
C      9.5107      6.5623      0.7313
H     18.3794     10.3255     19.3195
C     -2.5445      4.4001      2.2365
C      9.9300     -4.7211      9.1468
H      1.3199      1.0354      6.7364
H      7.6784      5.2203      0.0691
H      6.8762     -4.1092      6.3155
C     10.7937     -3.1726      0.9880
H     14.2226     -5.5663      9.1365
H     12.1779     -3.3563      4.3289
H     15.6543      8.5482     11.9983
H      2.3018      1.1480     -0.8895
H     -0.3909      3.7447     10.0512
C     15.1327      7.5941     15.5075
C     14.7083      8.4122     11.5305
H      2.8752      3.6188     10.5188
H     15.4370     10.6170     16.8146
C      4.4193      8.4047      4.5019
C      7.9372      7.1819      2.6660
C     20.8251      9.9134     14.5302
C     18.8760      8.7229     15.0958
C      4.1643      6.1937      6.4728
C      1.9488      5.0874      2.4093
C      5.8403      6.3099      0.4560
C      5.7989      7.4875      4.3322
C      8.0528      7.0049      1.1613
C      4.2290      5.2042      7.6045
C     14.3221     -7.7146      0.9056
H     -3.1095      5.5808      5.6458
C      6.4304      6.8924      5.3948
H      9.4872      5.4803      0.2306
H      1.0968      1.4908      2.3512
C      7.0725      5.5818      1.0711
H      0.0367      3.0784      3.5875
H     10.8634     -5.1689      9.6552
O      7.5867      6.6727      5.6063
H      9.2959      9.1151     11.3478
H      1.8999      3.5018      3.6165
H     16.2075     -7.8208      0.1164
H      4.6821      5.0893      4.9355
C     12.2790      7.6636     11.2715
C     15.6562      6.2611     15.9240
H     15.0480     -7.0410      9.7287
C     -1.6349      4.3893      4.8151
C      0.4176      6.5204      5.4283
H      2.8945      0.2021      5.6891
C      1.3314      5.5746      4.8246
H      2.7855      0.2327      1.5831
H     16.9184     11.0248     15.6867
H     12.7541     -6.1800      8.9084
C      7.7479     -6.3730      8.9523
C      4.2611      0.7352      8.0923
O      6.0175      4.0177      5.0585
C      6.3686      7.7734      3.1301
C      9.9141     -3.1560      5.6734
C     12.7481     -6.6892      2.7348
C     -1.4917      6.4626      3.5947
H     16.6396      8.3597     21.0021
H      4.4223      7.5017      1.2875
H     -2.1988      2.1291      4.8595
C      1.9367      0.7598      9.0151
C      0.5753      5.2063      3.5487
C      4.8506      3.5021      2.4546
H     14.0288     -8.6820      7.6151
H      7.9532     -4.3702      9.6568
H      8.3864      4.9593      5.0742
H     10.4613     -0.6451      7.6734
H      7.3631     -2.2100      6.2549
C     15.0690     -6.3272      8.8830
C     -2.0624      5.4117      5.7390
C      3.4311      1.1225      1.8171
C      1.4811      4.3547      5.5370
C     14.9655     -6.5281      7.2685
C     15.2696     -8.6425      0.2246
H      4.2731      2.7226      0.6164
H      4.0812      0.7873     -0.3850
H     11.4862     -1.4988      6.1664
H      4.7895      1.4820      3.8471
C     12.4814     -4.1162      5.0941
C      8.5700     -5.2626      9.6253
H      3.5753      5.7678      1.0073
H     21.6548      9.8376     13.7188
C      8.5020     -1.1626      7.6427
H      9.2715     -2.4969      4.9803
H      5.6505      1.9926      9.3001
C     12.5972     -5.9304      7.6990
C      0.5662      3.3529      5.3669
O      8.6678      5.2893      4.2040
C     11.3144     -5.0179      5.5405
C      6.2568      1.9167      7.0954
C      5.0676      2.3616      6.3346
C      3.3857      1.1162      5.7779
H      6.9785     -5.1476      7.7620
H      8.5856     -3.5062      7.8220
H     12.2977     -2.8800      6.5963
H      1.4963     -1.4520      8.4377
C     14.7539     -8.1993      7.0446
C      3.7327      5.5845      5.1650
C      3.2743      2.8971      9.0334
H     20.5627     11.0241     14.9654
C      8.3879      7.3676     11.0490
H      4.1001      5.7702      8.6233
H     10.5104      6.8863     10.8832
H      7.1897      1.6139      6.7018
C      3.7290      3.0530      4.5733
C     17.5679      9.7569     18.6936
C      6.5704     -0.1055      8.6159
C      7.5616     -3.2853      7.1814
C      5.6251      4.8418      7.5914
C      5.7714      1.3691      8.4552
H     -0.4816      4.3963      8.2823
H      9.6926     -3.6375      9.0590
H      0.8637      1.3267      0.7045
H     19.6158      9.7981     13.0427
H      8.2173      6.3546     11.7505
H     -1.2936      3.0812      6.9576
C     14.1949     10.2492     13.9948
H     10.0705     -3.5848      2.6870
