258

C     19.6118      8.6400     13.6264
N     -1.7257     10.3299      1.9539
C      3.8980      1.4293      7.2368
C      2.1781      2.6867      1.3957
C      7.3837      4.9743      2.4152
H     -3.4836      7.6063      2.1224
C      7.2735      3.5779      2.7184
C      3.2037      3.8786      5.4402
C     16.2265      7.0269     19.3261
C      5.9113      1.6591      3.9941
C     -7.1392      8.2782      9.4499
C     13.8562      8.6730     13.6181
N     -0.1547      2.5673      6.2543
C      0.3980      5.7210      0.5029
O     -1.6161      2.6364      0.9872
C      2.9707      4.0624      6.7683
C     15.4873      6.1982     17.5098
C     16.0130     10.4351     16.3337
H    -11.4143     13.5189      9.8923
H     -3.5911      3.5429      4.9041
H     16.9204      5.3228     15.2740
C     17.0355      9.0175     16.1824
H     -8.9475      7.4689     11.0549
H      8.1754      3.0471      2.4742
H     12.9514      7.2665     10.9208
H     -1.5801      5.2359      6.6219
C      2.8225      2.6888      7.6162
H      6.8443      1.1368      4.2106
O     14.1631     10.7599     14.7146
C     -4.7128     12.6346      8.4843
C      6.9512      5.9578      9.6731
H      2.6676     -0.6029      6.8459
H      3.0300      6.8315      8.9833
C      6.1751      3.0288      3.3117
H      6.2079      3.4651      7.9219
H     -8.1605     10.2988      9.6991
H     -8.8015      7.1829      8.8981
C     17.1226     10.9673     17.2664
C     -3.1112      8.5469      4.9839
O      1.9609      8.3568      4.7428
C     -1.4736      8.4242      6.9439
C      8.4417      8.4408     11.8524
C     20.2101      7.8496     12.6706
C      6.4535      6.8184     -0.8582
H      5.5543      5.1303      2.8040
H     17.6009     10.2419     14.7781
H      1.6392     -1.2432      3.8777
H     -5.2066      7.0266      7.7236
C      7.2275      6.5384     10.9071
C      8.0334      5.8411      3.2797
H      8.1421      7.2708      2.4105
C     -1.2369      6.9067      5.0198
H     16.5068      8.5748     21.1137
H      2.1557     -0.5090      1.9322
H     15.3037      6.9386     13.2391
C     -3.1100     11.6053      7.0802
C      5.8997      5.0714      9.1831
C     15.9455      7.5860     17.9546
C      4.8145      5.3748      0.3545
C     17.7856      9.3024     15.0930
H     -3.7962      7.7450      4.8616
H     -9.4734     14.1010     10.6559
H     -6.5532     12.1616     10.1468
H     17.1434     13.3394     17.3529
C      0.0801      3.4201      8.5929
H     20.5783     10.4804     13.6450
C     13.3617      8.3401     12.3020
C      1.7092      1.7128      7.8580
H     -1.7805      8.1308      9.0500
C     -0.8159      6.1048      1.3815
H      5.6532      7.4425     -1.4135
C      9.8782      7.8577     12.2655
O     15.5807     10.4128     12.8627
C     -6.4113      8.4719      8.2668
C     16.9525      8.2525     20.1256
C     -9.3657     14.6681      9.6006
C      2.7580      1.5210      4.9714
H     -2.2406     11.1523      2.3115
H     -7.2262     11.5499      7.0808
H     -8.5090     17.5975     10.2144
C      3.8295      3.3550      3.2653
H     -3.7382      8.9984      6.7715
C     -2.3320      8.4079      0.6590
C     11.0087      7.4982     11.5414
H     -1.7121     10.7879      5.7736
C      4.9242      2.3004      5.1840
H      3.8204     -0.4550      5.9404
H     -2.0846      1.7696      1.0923
C    -10.3819     12.2169      8.4338
C     -8.2709     10.9221      8.7633
C     -2.2109      5.3124      3.2798
C     16.6338      9.3458     19.1068
C      2.3216      3.5057      2.8112
C     -8.2366      7.2958     10.0273
H     16.0641      8.1859     14.1363
H      9.0402      4.6619      4.4387
H      2.0034      4.7495     -0.6512
O      5.3379      6.2196      6.3860
C      0.5694      8.0071      4.4268
H     -8.5970      9.9776      7.9911
C     -3.0927      8.8862      3.5909
C     -2.6498      7.6161      2.8058
H     -6.7342      8.0092      7.2946
C     -2.7057      7.9878      7.3931
H      1.9643      3.9131      5.2711
H     13.3796      8.9257     10.1117
H      4.8726      3.4499      1.0986
H     -0.2279      4.0560      7.7592
C      3.1114      1.6450      1.4404
C     -0.1695      8.4187      1.9971
O      4.7119      3.9239      0.1631
C     -0.4169      3.0159      1.2658
C     -0.1350      4.0647      4.1768
C     -5.4703     10.6604      7.4974
H     -3.4229      7.4000      6.9316
H     15.4177      9.4685     18.8614
H     -0.8115      9.6988      3.8752
H      0.9930      6.3667     -0.1296
O      0.1969      9.8523      5.7200
C     -6.8011     11.4160      8.1487
C      0.6419      7.3072      6.7519
C     14.9537      7.7154     14.0008
H     15.1928      8.0965     16.0019
C      0.4350      7.4706      2.9404
H     -3.7843     12.8162      9.4694
C      2.3753      0.6046      3.7822
C      0.3810      2.2026      7.7453
C     -2.8386     10.8040      5.9629
C     -2.4964      3.4806      5.2034
C     17.7136     12.1569     17.4448
C     -9.6424     17.3300      9.8280
C      0.7786      2.0458      1.0633
C     -1.4013      7.7239      1.5986
C     -8.9962     12.2224      8.7067
N      1.8001     -0.3177      4.3090
C      3.8086      1.2427      0.2043
O     16.8696      6.2637     15.4982
C      9.2929      6.2692     -0.2429
H     18.2751     10.3785     19.0317
H     -0.0911      1.1930      7.7430
C     -2.9053      4.9026      2.2050
C     -2.7993      7.8156      8.7286
H      1.6525      0.9526      6.9677
H     -5.4557     10.3435      9.3581
C     -1.9296      9.8674      0.6262
H     -8.0408      6.2185      9.8090
H      1.8595      8.0124      8.7423
H     -0.6535      9.2681      2.2763
H     14.6107      9.7584     11.2641
H      4.0024      0.3165     -0.2337
H      1.0329      3.6650      9.0139
C     14.8326      7.3969     15.4447
H      3.2711      1.8184     -0.5729
C     13.9397      8.9586     11.3105
H     15.1074      9.7609     16.7368
C      4.4524      8.0589      4.3009
C      7.6471      7.1353      3.2037
C     20.6255      9.5525     14.1980
C     18.7769      8.3317     14.9635
C      4.1104      5.6947      6.2150
C      1.7528      4.8996      2.8103
C      6.1291      5.8621      0.3296
C      5.6939      7.2325      4.2399
C      8.1856      6.6947      0.4832
C      4.1138      4.7870      7.2961
C      1.5432      5.2507      1.3599
H     -2.7398      5.8318      5.6950
C      6.2889      6.6443      5.3263
H     -2.5740      2.4275      4.8470
H     -3.2593      5.6760      1.5517
H      0.8242      2.0875     -0.0125
C      7.1655      5.8448      1.1640
H     -0.4419      3.3092      3.4057
O      7.3264      7.2768      6.0197
H      8.4120      9.7703     11.9085
H     20.5466      9.4538     15.4221
H      1.5543      3.1703      3.5168
H     -1.8153      9.6399      2.3962
H      3.3965      4.6589      0.4368
H      4.5924      5.0270      4.1337
C     12.3175      7.5770     11.6302
H      6.6915      5.5802      4.8744
C     15.5891      6.1079     16.0818
H      1.6308      6.2495      9.6284
C     -1.7371      4.5204      4.6138
C      0.2642      6.9738      5.3934
H     18.1498      8.2149     20.3526
H      2.0024      1.8331      5.8017
C      1.0560      5.7408      5.0115
H    -10.9739     11.3928      9.0004
H     15.8874     10.1983     15.1372
H     -0.2496      7.8591      8.4933
C     -5.0752      6.5149      8.6941
C     -8.5671     13.5682      8.5955
C      6.1647      7.3712      2.9454
C     -3.7077      9.5803      5.8303
C     -0.4185      6.2433      2.8058
C     -1.7881      6.6199      3.4388
H      4.5431      5.8378     -0.6001
H     -2.5409      3.8349      6.2889
C    -10.7953     13.7234      9.0454
C      0.4960      5.3370      3.7428
C      5.0949      4.1059      3.3011
H      1.1626      5.1408      8.3766
H     -4.3417      9.1819      8.5838
H     -2.3100     12.4626      7.4881
H     -5.5949     10.3009      6.4876
C      2.0352      6.9809      8.7859
C     -1.7383      5.6317      5.6248
C      2.2693      0.6498      2.2536
C      0.8610      4.8414      6.1693
C      1.8369      6.5112      7.3436
C      2.2740      4.7098      0.3193
H     -1.6127      5.3293      1.3132
H      4.6976      1.8835      0.2940
H      5.5526      0.9343      3.1560
C     -0.5463      8.8892      4.7558
C     -3.9738      7.2146      9.3323
H      4.7824      5.7768      1.4584
H     -3.9694      9.2399      2.9607
C     -4.4290     11.7690      7.5753
H     -3.7100      4.0236      2.4560
H     -6.6562     14.7024      8.9258
C     -0.3850      7.7046      7.4612
C      0.2940      3.6807      5.6143
O      8.3438      5.3154      4.5027
C     -1.6920      8.2760      5.4547
C     -6.7401     13.9007      6.9909
C      5.1798      1.8441      6.5311
C      3.1387      0.3645      6.2542
H      7.2087      8.1708      6.1288
H     -5.5995     14.0279      6.7828
H     -8.2645     16.2625      8.8023
H      1.1736      9.6640      5.2891
H     18.3371     12.1307     18.2777
C      1.5895      5.0228      7.2834
H     -0.1253      4.1586      1.4874
C      3.6480      5.2172      5.0031
C     -9.5807     16.0867      9.0779
H     21.4769      9.1893     13.9008
C      8.3492      7.6990     10.6147
H     -9.9320     17.9347      8.7103
H     10.8116      6.6133     11.0485
H     -6.8789     12.7873      7.0135
C      3.7861      2.7158      4.7141
C     17.5683     10.0498     18.1560
C     -6.1522     12.6463      8.9497
C     -5.3442      9.5684      8.4289
C      5.2771      4.3330      8.0995
C     -7.0253     13.8750      8.4716
H     -0.8223      2.9277      9.0361
H      2.4966      3.5400      0.5058
H     18.8396      9.4201     13.1732
H     10.0360      5.8264      0.3537
H     -0.6301      1.7572      5.7698
C     14.6628     10.0793     13.7893
H    -10.4302     17.4970     10.5123
H     -2.5262      9.9435      3.7502
