262

C     32.6846     -3.6036     13.8937
C      4.0393      1.4791      6.9312
C      3.1025      3.3778      1.1098
C      6.7899      4.9730      2.4671
H     10.2920     -9.2429      2.2336
C      7.3772      3.6261      2.8086
C     16.2442     -8.7151      5.3150
C     19.8315     -3.6290     11.0877
C     28.9861     -5.7568     19.4125
C      5.7833      1.9408      3.6922
C     19.3718     -4.7154     10.2354
C     26.6325     -4.2140     13.4896
N     -0.2311      3.0010      6.4078
C      0.2899      5.6772      0.5071
C     16.2060     -8.8254      6.7771
H     -0.1944      5.9829     -0.4251
C     28.3507     -6.5019     17.2312
C     29.8460     -2.1581     16.5431
H      1.3586      0.5806      9.3568
H     10.0240    -10.1974      5.5968
H     19.2080     -1.1602     10.4287
C     29.8522     -3.6027     16.1671
H     20.8834     -3.5018     10.9504
H      7.7191      3.6147      3.7895
H     25.2509     -5.5527     10.5864
H     11.7770     -8.1972      6.3108
C      3.0293      2.6811      7.3156
H     -2.6703     10.4200      0.2554
H      6.8274      1.3103      4.0640
O     27.4234     -2.1292     14.8784
C      8.1867      0.1094      8.5142
C     19.7488     -6.8824      9.9532
H      1.9414      5.2752      9.0684
C      6.2391      2.8611      2.4648
H     19.4036     -7.3530      7.3226
H     20.0773     -3.7053     12.2889
H      4.7598     -2.8083      8.8558
H     17.4766     -5.8884     10.8929
C     30.5456     -1.9380     17.7703
C      9.8939     -4.2881      5.0018
O      1.7762      8.6597      4.9515
C     -1.6950      7.4564      7.2272
C     21.7884     -4.8097     12.3355
C     33.2538     -4.8075     13.2733
C      6.3188      7.4583     -0.4083
H      4.9621      3.9538      1.1046
H     29.8111     -3.3956     14.0449
H      1.1072      0.8583      4.5167
H     -4.9802      5.9455      7.9273
C     19.6879     -5.8716     11.1652
C      7.5017      5.8515      3.3092
H     33.9276     -3.0458     15.6069
C     11.7542     -6.2403      5.1782
H     27.8376     -4.7530     20.8459
H      4.5367      0.5118      2.6177
H     17.8613     -2.3912     10.1994
H      4.0418      7.3380      0.0010
C      9.8793     -1.3273      7.3834
C     18.5165     -7.4294      9.4317
C     28.7528     -5.3445     17.8409
C      4.5482      6.3352      0.4113
C     30.3819     -3.8426     14.8636
H      9.1483     -4.9751      5.3441
H      8.5536      8.0418      3.1326
H      3.5404      0.9343     10.3150
H      6.6995      0.3415      9.9926
H     30.6834      0.1011     18.2485
C     -0.1340      2.4856      8.6456
C     26.0428     -4.5114     12.2009
C      1.7412      1.7200      7.0634
C     -0.5187      6.3436      1.4339
H      5.3298      8.2906     -0.3977
H      9.4651     -9.3323      4.0396
H      5.8767      4.7023      4.2230
H     18.9708     -1.9468     11.9998
C     22.8623     -5.2967     13.1101
O     27.7154     -2.1919     12.7415
C     19.7884     -4.3966      8.5808
C     28.8150     -4.4382     20.3514
C      3.1484      1.0132      9.2016
C      3.5121      1.6415      4.5638
H     -1.5325     10.4913      1.6140
H      5.8523     -0.7955      7.0371
C      3.9507      3.5700      3.1602
C     -2.0700      8.6881      0.7240
C     23.7237     -6.0081     12.0645
H     10.1675     -3.3493      7.5233
C      5.4627      2.7569      5.0190
H     30.4738     -1.2859     19.7274
H      8.2079      3.3067      2.0422
H      8.0902      0.5853      7.5352
C      2.5689     -0.9562      8.4003
C      4.8817     -1.7261      8.3768
C     10.6943     -7.6769      3.2649
C     29.0279     -2.9867     19.4739
C      2.7747      3.8616      2.6177
C     18.0014     -5.1241      9.9473
H      1.7266     -1.7329      7.9961
H     28.7322     -4.4607     14.0590
H     11.7768     -8.4314      1.3883
H      1.6852      3.7526     -0.8161
O      5.4202      7.1933      6.3682
C      0.5931      7.9195      4.4463
H     28.9303     -2.2509     20.2028
C     10.1853     -4.2326      3.6670
C     11.0501     -5.2083      3.2702
H     19.2059     -3.4510      8.6080
C     -2.8249      7.2310      8.0184
H      0.9922      2.3853      4.7858
H     27.0711     -5.0756     10.5817
H      6.4280      2.2894      1.6090
H     -0.0800      1.4342      8.8335
C      3.8355      2.0256      0.9758
C     -0.0468      8.7132      2.0715
C     -0.3879      3.9017      4.0202
C      7.5421     -1.9355      7.6400
H      1.1919      0.3338      2.9733
H     -3.6436      7.0514      7.4109
H     28.5698     -2.2538     18.8355
H     28.0812     -6.2168     13.6669
O      0.3048      9.9691      5.9102
C      6.2627     -1.1227      7.9935
C      0.7274      6.7990      6.8145
C     27.8836     -5.0620     13.8230
H     28.6587     -4.2836     15.6037
C      0.7268      7.7836      3.0138
H      8.6551      0.7560      9.1684
C      2.7448      1.3677      3.3452
C      0.4794      2.3092      7.2667
C     10.4453     -2.5546      6.6722
C     10.3310     -9.8248      4.4185
C     31.0462     -0.9700     18.5123
C      2.8424      3.3893      9.7864
C     -1.3423      8.0692      1.7896
C      3.9408     -0.7751      8.1357
N      1.9015      0.3506      3.7766
H      2.3783      1.9367     -0.4777
C      3.2885      1.4206     -0.2189
O     30.3056     -6.2854     15.5413
C      9.3686      6.8860      1.2965
H     31.2205     -3.3762     19.0620
H      1.4914      0.9012      7.7641
C     10.7892     -8.2531      2.0888
C     -2.8543      7.4080      9.3828
H      1.6021      1.3190      6.1377
H      7.4129      4.8404      0.5241
H     21.6570     -3.9308      7.2144
C     -1.8946     10.0108      0.8500
H     18.1815     -5.6321      8.9105
H      3.1348      6.3035      9.4369
H     10.2677     -8.0142      6.3924
H     -0.9723      9.6381      4.4328
H      4.0399      0.5549     -0.3359
H     -1.0489      2.6493      7.9109
C     28.1129     -5.2177     15.4189
H     17.8335     -6.7757      9.3803
C     27.2353     -4.3055     11.3373
C     19.0533     -2.2550     10.7094
H      2.4795      2.9633     10.6053
H     29.6966     -1.6112     15.6592
C      4.1633      8.7692      4.4371
C      7.7037      7.1903      2.8450
C     33.4405     -2.6877     14.6466
C     31.6275     -4.3735     14.9140
C      4.4505      6.0753      6.3114
C      1.8147      5.0556      2.3864
C      5.8142      6.2577      0.1856
C      5.6256      7.8322      4.2033
C      7.8192      6.9660      1.3918
C     17.1455     -7.8535      7.3320
C      1.3987      4.9344      0.7980
H      8.7896      6.0680      4.6885
C      6.4399      7.2610      5.3145
H      9.5874      5.7584      1.3248
C      7.1644      5.6546      1.0878
H     -0.6362      2.9109      3.1171
H     -1.7015      7.2163      9.8472
O      7.6141      7.0216      5.6296
H     22.3269     -3.9281     11.8589
H      1.9147      2.1722      3.1771
H     -0.3913      9.6668      2.7366
H      3.8022      5.8154      1.0896
H      4.7304      5.3349      4.0915
C     24.9108     -5.2908     11.7852
C     28.6129     -6.4756     15.8204
H      1.9119      6.9970      9.2471
C     11.1559     -8.6724      4.3417
C     13.2559     -6.1701      5.3197
H     17.3034     -4.5494      9.8898
H      2.8497     -0.1459      5.4641
C     14.1870     -7.3051      4.7522
H      3.1848      0.2815      1.6107
H     -0.1488      6.8238      8.6665
C     -4.9154      6.0386      9.1432
C      4.1596      0.7598      8.1860
O      6.1446      4.2486      5.0834
C      6.3474      7.9792      3.0216
C      9.6777     -2.8608      5.4221
C     -0.1639      6.3044      2.8134
C     11.4035     -6.5178      3.6234
H     29.5110     -4.6865     21.1121
H     28.4313     -4.6800     11.3526
H     10.5596    -10.6681      3.6473
C      2.2063      0.1144      9.0831
C      0.5978      5.1520      3.2745
C      4.9930      3.7671      2.2579
H      1.2922      3.8058      7.6187
H     21.7081     -5.0135      9.0164
H     10.8747     -1.0114      7.7267
H      7.6869     -2.9621      7.2797
C      2.3325      6.2919      8.8128
C     11.0879     -7.8490      5.6231
C      3.5033      1.1208      2.1513
C     14.5588     -8.5750      5.3785
C      1.9990      6.3536      7.1643
C      2.2331      4.0601      0.1070
H     -1.5336      6.5600      1.4215
H      4.8709      1.5534      0.9014
H      3.3365      1.9911     -1.1827
H     11.5599     -2.3567      6.5998
H      5.1306      1.3803      3.1003
C     -0.4864      8.8367      5.1890
C     -4.1074      6.7563      9.9267
H     34.0982     -2.1937     14.0279
C      8.7136     -1.3470      8.2963
H      9.9542      7.1617      2.2932
H      9.5541     -2.0861      4.7707
H      5.5905      1.8572      9.3347
H     28.6642     -1.9329     12.5682
C     -0.2416      7.1469      7.7029
C      0.5337      3.2925      5.0268
O      8.4767      5.2995      4.2041
C     -1.7218      7.9598      5.5800
C      6.1090      2.1671      7.3931
C      5.1927      2.2249      6.4591
C      3.5017      0.8699      5.7076
H     19.6068     -5.1934      8.1111
H     18.9025     -9.2768      7.7630
H     21.5941     -3.2838      9.0056
H      1.0853      9.4041      6.4497
C      1.8885      4.6943      6.9566
C      3.8526      5.5598      4.9104
C      2.9752      2.5122      8.7594
H     33.0640     -1.6838     14.8994
C     21.2200     -5.9093     11.4088
H     16.5139     -7.4344      7.9407
H     23.2111     -6.8331     11.5658
H      7.1396      3.0013      6.9915
C      4.1167      3.0711      4.6043
C     30.2061     -3.2121     18.5117
C      6.7259      0.0169      8.9994
C     21.2743     -4.2080      8.2604
C     18.5729     -8.0312      8.1008
C      5.6837      1.1473      8.5730
H      0.0915      3.0575      9.4379
H     -3.0536      8.4628      9.7354
H      9.5993     -0.5053      6.5943
H     31.7820     -2.9487     13.4067
H     21.4503     -6.6815     11.9683
C     27.4083     -2.8193     13.8403
H      3.0014      4.4584      9.5541
H      9.7475     -3.4731      3.2189
