258

C      6.7412      8.9875      0.6610
C      4.1549     14.5355      7.0031
C     16.1166      3.3612     14.1194
C      7.2585     18.0630     15.4647
H     10.3598      3.0413      2.1200
C      7.8042     16.4939     15.4384
C      3.2253     17.0063      5.5512
C      6.6492     22.5910     10.4800
C      3.2127     20.3723      6.5566
C      6.1738     15.1980     17.0895
C      6.2517     21.4098      9.6925
C     13.9679      8.9579     13.7352
N     12.5793      3.1659      6.1739
C     13.5884      5.8164     13.4644
C      3.3825     16.8711      7.0088
H     13.5866      5.7449     12.1990
C      2.7305     19.2992      4.5143
C      3.8714     10.8275      3.3234
H      9.8624      3.0927      3.8382
H     17.3903      5.8444     15.8871
H      5.4626     23.5383     11.7648
C      3.7830      9.2216      3.0624
H      7.4024     23.3414     10.0410
H      8.4943     16.2641     16.4531
H     12.7128      6.6278     11.2538
H     12.0360      5.4352      6.4967
C      2.9421     15.5429      7.4292
H      9.8008     10.5305     13.3338
H      7.2404     15.3245     17.6405
O     14.3308     10.3460     15.2374
C      8.2242     12.3836     21.8911
C      6.7826     19.0188      9.6558
H     14.1467      6.6588      9.2617
C      6.4284     15.7539     15.6206
H      6.6360     17.9015      7.7954
H      7.3771     22.2622     11.0898
H      4.9777     10.2702     21.2728
H      4.6249     20.4945      8.9919
C      4.1014     11.2670      4.7397
C      9.8113      8.4819     17.7492
O     14.8224      8.7136      5.2415
C     11.2125      7.5869      6.9627
C      8.7269      8.1052     12.1962
C      7.3703      7.7900     -0.0081
C      6.1948     20.1503     12.0235
H     17.9688      4.2339     14.3686
H     15.3920     -0.3156     17.7070
H      7.9795      6.1892      7.7548
C      6.7575     20.1260     10.6010
C      7.6091      6.0300     16.2550
H      8.8168      9.6290      1.1082
C     11.8684      6.5206      4.9302
H      3.5472     21.5066      8.2381
H     17.4592      0.5669     15.3912
H      5.8029     24.2968     10.3733
H      3.8732     19.5332     12.8655
C      9.9946     11.8168     19.5520
C      5.6415     18.4963      9.3923
C      3.0194     20.6911      5.2161
C      4.4145     18.8188     13.4110
C      4.3951      8.9478      1.6997
H      8.8137      8.0837     17.7063
H      8.2712      8.1984     15.8927
H      4.0148     13.8983     23.1478
H      6.2644     12.3588     22.4119
H      5.3601     12.7388      4.0710
C     12.9568      2.8412      8.5409
C     13.3202      8.2836     12.4528
C     14.7062      2.0560      6.5467
C     12.4141      6.4907     14.2672
H      5.4555     21.0170     11.9613
H     10.6634      2.5554      5.7505
H      5.7252     17.6379     17.1894
H      4.1554     23.2994     10.6283
C     10.0825      7.3959     12.9945
O     15.2746     11.0935     13.3111
C      6.6974     21.5483      8.2686
C      3.9056     21.4397      7.2842
C      3.5632     14.1431     22.2787
C     16.4514      1.7576     17.5917
H     11.3835     10.0241     14.4189
H      5.9226     12.6329     19.7412
C     17.0051      3.5667     16.1406
H      8.5183      9.8116     18.4570
C     10.7027      8.5843     13.7976
C     11.1259      6.7831     12.1962
H     10.5647      9.9837     20.4259
C      5.5543     15.9341     18.2111
H      5.7043     12.3706      5.7688
H      8.9610     13.3365     21.9170
C      2.4815     12.4458     21.4863
C      4.8209     11.2664     20.8005
C     10.4940      4.9815      3.3652
C      3.3777     22.6663      6.6388
C     15.8939      3.9914     15.4422
C      4.8570     21.3455      9.6372
H      1.5151     11.6435     21.7549
H      3.0727      8.5465      1.5878
H      9.7600      4.6435      1.3949
O      5.5027     19.4370      6.5641
C     13.6715      8.0086      4.5326
H      3.1878     23.0886      7.5735
C     10.2814      8.7733     16.4760
C     11.0360      7.8165     15.8523
H      6.0085     22.0881      7.7581
C      9.9992      7.7451      7.5642
H     14.3072      2.7278      4.5031
H     14.3296      7.4485     11.0739
H      6.9048     14.8818     14.8119
H     14.0777      2.8477      8.8304
C     16.7544      2.0384     14.0380
C     12.8256      8.7275      2.0118
C     12.5497      4.0389      3.9842
C      7.3890     11.4264     19.7803
H     14.2471     -0.1011     16.7705
H      9.2657      7.2887      7.2174
H      2.1248     22.9316      6.7197
O     12.7864      9.4320      6.4931
C      6.2229     11.7708     20.5684
C     13.6767      6.8788      6.7697
C     15.1967      8.0629     14.1905
C     13.5293      7.6502      2.9426
C     15.8461      1.0811     16.4026
C     13.2053      2.7977      7.1119
C     10.4673     10.4294     19.3706
C     10.2175      3.1813      4.8377
C      4.7592     12.5909      5.1235
C      2.7464     16.7312     22.5195
C     11.7467      7.8235     14.5658
C      3.8694     12.3463     20.8295
N     15.2502     -0.1878     16.7058
H     15.5370      1.5891     11.9611
C     16.3059      1.2634     12.6215
O     16.9425      6.6953     15.6337
C      9.2993      6.1391     13.7145
H      5.2957     22.9241      5.7622
H     14.7325      0.9702      7.2134
C     10.0353      4.1910      2.3521
C     10.1852      7.4917      9.0001
H     14.6620      1.8434      5.4851
H      7.3151     17.6165     13.4472
H      7.5144     22.8212      7.2271
C     10.6525      9.8189     13.7286
H      4.4582     22.2353      9.2251
H     15.9460      6.7210      9.2269
H     12.0469      9.7417      4.5841
H     13.2497      8.4404     10.7614
H     16.1188     -0.0080     12.8771
H     12.4612      1.9344      9.0001
C     14.8790      7.5618     15.4721
H      4.9818     18.3559     10.2000
C     14.0845      8.4462     11.4031
C      5.3417     23.4742     10.7268
H      3.2625     16.7542     23.6072
H      3.6573     11.3171      2.3620
C      4.1370     21.5272      4.4736
C      7.7505      7.3241     15.5256
C      7.9095      9.6732      1.4988
C      5.7223      8.5064      1.7890
C      4.2511     19.0990      6.5136
C     14.8832      5.0404     15.4114
C      5.6805     18.9997     13.1621
C      5.4750     20.7878      4.3002
C      7.7737      6.7652     13.9536
C      4.4625     17.9164      7.4803
C     14.5197      4.9340     14.0238
H      8.5988      6.5015     17.7431
C      6.1983     20.1408      5.4574
H      9.4856      5.0727     13.2875
C      6.8457     18.5051     13.9939
H     12.4864      3.2703      3.3205
H     11.2052      6.8587      9.1196
O      7.3590     20.3577      5.7298
H      9.0396      9.2471     12.2102
H     15.0519      1.6386     16.0466
H     12.2870      9.6928      2.2844
H      3.8096     18.2811     14.1956
H      4.2710     18.4756      4.2557
C     12.2987      7.2646     12.1189
H      6.8443     17.3139     18.7483
C     15.7048      6.3552     15.9811
H     15.0146      8.0191      8.8134
C     11.1705      4.3258      4.6453
C     13.3215      6.6886      5.3459
H      4.2918     21.0950     10.6990
H      2.8590     13.2236      6.2910
C      1.4360     18.5432      4.7583
H     16.2463     -0.2627     14.9219
H     12.5536      7.1115      8.6686
C      7.9556      6.4676      8.9066
C      4.4796     13.7066     21.1991
O      5.8748     17.2439     18.0816
C      6.1871      8.0511     15.9992
C      9.5122      9.9010     18.4132
C     12.7880      6.4081      2.7630
C     11.3405      6.4749      3.4585
H      4.9587     21.4177      7.2858
H     14.7537      9.4914     11.6278
H      9.5021      3.6214      5.5752
C      2.4640     13.3320     22.3856
C     13.4097      5.1428      3.2190
C     18.1775      3.6506     15.3245
H     13.9577      4.8279      8.1376
H      8.5635     21.6741      7.1316
H     10.5491     12.6256     20.1855
H     14.1695     11.3638     15.8216
H      7.0472     11.2499     18.8306
C     14.9719      7.0458      8.8263
C     11.2787      5.4725      5.7028
C     16.4959      0.8008     15.2014
C      1.6753     17.3043      5.5598
C     14.9343      6.6007      7.2984
C     15.2317      3.9211     13.3242
H     11.7012      5.6485     14.1535
H     17.8586      1.6299     14.2608
H     17.2413      1.6753     11.9601
H     11.4081     10.5904     18.8943
H      6.5521     14.2190     17.3276
C     12.3225      8.8446      5.1307
C      8.8317      6.9197      9.7039
H      7.7349     10.9116      1.6724
C      8.5701     12.0065     20.1251
H      9.9573      6.3739     14.7247
H      9.6151     10.6986     17.4639
H      5.5964     14.5457     22.3861
C     12.5362      7.1135      7.5944
C     13.5363      3.4181      4.8893
O      8.2764      5.5899     17.3831
C     11.2411      7.8700      5.4195
C      6.4647     15.0134     20.5163
C      5.5817     15.1238     19.4426
C      3.7862     13.6938      5.7672
H      6.5644     20.5323      7.6619
H      5.3675     16.4173      8.5432
H      8.0021     22.8988      8.5185
H     13.6485      9.0681      6.5093
C     14.8465      4.7421      7.1078
C      3.7726     18.5085      5.1619
C      2.9904     15.5396     21.8239
H      7.8393      9.9350      2.5553
C      8.3708      7.2418     10.9322
H      3.9110     18.1872      8.2592
H     10.9711      5.9138     11.5629
C     17.0074      3.0362     17.5586
C      4.2758     22.8944      5.4504
C      6.6821     12.7633     21.5856
C      7.9711     22.1290      7.9012
C      5.5979     17.4817      8.2589
C      5.8796     14.0767     21.4118
H     12.1414      3.5114      8.5571
H     10.4016      8.5456      9.7892
H     10.3361     12.3261     18.5325
H      6.0536      9.6026      0.2888
H      8.3772      6.0030     11.0246
H     12.0142      4.1452      6.2229
C     14.5837     10.3689     14.0227
H      2.2978     17.7060     22.3363
H      9.5827      9.5897     15.9930
258

C     19.6830      9.1801     13.6384
C      3.7876      1.5875      7.0302
C      2.8679      3.2864      1.2832
C      7.7617      4.9562      2.3872
H     -2.6904      3.3755      2.4758
C      7.5412      3.2968      2.8876
C      3.1043      4.0460      5.1901
C      6.9079      9.5875     10.5665
C     15.9305      7.1473     19.4493
C      6.1446      1.7368      4.3106
C      6.5230      8.3723      9.8088
C     13.6589      8.9008     13.6159
N     -0.4081      3.3536      6.5673
C     13.6732     -6.7720      0.6495
C      3.3246      4.0094      6.9264
H     13.5280     -6.5894     -0.3480
C     15.5950      6.2282     17.2614
C     16.6990     10.4649     16.5856
H      1.2971      0.6837     10.1073
H     -2.4182      2.5271      3.6687
H     17.5751      5.7422     15.2658
H      6.6537     11.7705     10.4340
C     16.8059      9.0494     15.9433
H      8.0426      9.6391     10.4599
H      7.4467      3.6175      4.0624
H     12.3366      6.9275     10.4538
H     -1.6388      5.2389      6.6424
C      3.0633      2.6342      7.5016
H     10.3078     -2.8022     -0.6988
H      7.1500      1.5340      4.7220
O     14.5316     10.5161     15.0935
C      8.1096     -0.1909      8.6255
C      6.8730      5.9087      9.6516
H     14.3844     -7.2322      8.8297
C      6.3975      2.3446      2.8204
H      6.4703      4.9356      7.3518
H      6.5520      9.1744     11.4921
H      4.9463     -3.0648      8.3022
H      4.5420      6.9673     10.1412
C     17.5221     10.6005     17.7993
C     10.0195     -4.2075      4.8562
O     14.9106     -4.5697      4.7521
C     11.5073     -4.9639      7.0633
C      8.6391      8.1524     11.9513
C     20.3970      7.9349     12.9074
C      6.4248      7.0938     -0.7133
H      5.0461      3.1444      1.6238
H     17.0688      9.9011     14.2202
H      1.9418     -0.4594      4.4384
H      8.9329     -7.4100      8.2911
C      6.9458      7.0435     10.7768
C      7.7519      5.8718      3.3563
H     21.2276      9.4911     14.9857
C     -1.2737      6.6435      5.0142
H     15.8065      8.2701     21.4881
H      4.7516      0.6051      2.5454
H      5.3363     11.1735      9.6793
H      4.1328      6.1718     -0.1774
C      9.7770     -1.0874      7.2176
C      5.6127      5.2529      9.4058
C     16.0044      7.5860     17.9419
C      4.6884      5.6829      0.6254
C     17.4821      9.0031     14.8705
H      9.1682     -4.7916      4.8698
H      8.9814      7.4704      3.1020
H      4.1700      1.2428      9.8972
H      6.7646      0.1702      9.8692
H     17.4996     12.3845     16.7516
C      0.0761      2.7120      8.8323
C     12.9670      8.6037     12.0479
C      1.6698      2.1022      7.1095
C     12.3498     -6.5534      1.3259
H      5.9479      8.1050     -0.8519
H     -1.5577      2.3740      5.1843
H      6.1539      4.5481      5.9256
H      5.4069     10.9598     11.5548
C     10.0569      7.6755     12.9109
O     14.6527     10.8238     12.6599
C      6.9235      8.4515      8.4526
C     16.2059      8.4253     20.4527
C      3.3907      1.2045      9.2156
C      3.3679      1.5279      4.7570
H     10.9492     -1.8712      0.8316
H      5.7933     -0.6769      6.8820
C      4.0156      3.3959      3.2716
H      8.4579     -2.4077      4.9939
C     10.5923     -4.2414      0.6890
C     11.0950      7.0039     11.9320
H      9.9519     -3.4360      6.7958
C      5.2774      2.7192      5.2674
H     18.4009     12.9836     18.2805
H      8.5333      2.7084      2.5530
H      8.2617      0.9052      8.0242
C      2.4014     -0.7642      8.3680
C      4.7351     -1.8546      8.3815
C     -2.4770      5.1756      3.4249
C     16.0626      9.6319     19.6737
C      2.7628      3.8388      2.5800
C      5.0010      8.0337      9.9445
H      1.7094     -1.3021      7.7340
H     -3.0937      4.4125      1.3876
H     15.1500     -9.2050     -0.7482
O      5.2933      6.9981      6.7226
C     13.6619     -5.0658      4.4214
H     15.9348     10.2780     20.6321
C     10.1248     -4.3206      3.3712
C     10.7607     -5.3299      2.7978
H      6.2286      9.0817      7.9584
C     10.2492     -5.2563      7.8189
H      0.3998      2.3772      4.9512
H     14.2585      8.0758     10.5674
H      6.3842      1.7334      1.8026
H     -0.0777      1.5969      9.0324
C      3.4519      1.9587      1.0917
C     12.9419     -4.2680      1.9538
C     -0.2854      4.1096      3.9543
C      7.2419     -1.7141      7.1526
H      1.7300     -0.3585      2.8676
H      9.7814     -6.1365      7.2012
H     15.7398      7.4480     13.2624
O     13.2906     -3.3926      6.0903
C      5.9810     -1.1857      7.8277
C     13.3910     -6.1721      6.6177
C     15.1848      8.0724     13.7992
C     13.5336     -5.4108      2.8262
H      8.6619     -0.1318      9.5053
C      2.8578      1.1451      3.4539
C      0.5160      2.8521      7.3869
C     10.1425     -2.3615      6.4451
C     -2.2457      2.9736      4.6889
C     17.8385     11.9511     17.7006
C      2.5097      3.5577      9.7384
C     11.6180     -5.0523      1.5453
C      3.8934     -0.8654      8.0837
N      2.4154     -0.2156      3.5843
H      1.6274      1.6856      0.5481
C      2.6722      1.5373      0.0087
O     17.4935      6.7614     15.5617
C      9.4580      6.8475      1.0255
H      1.8081      0.9556      7.3139
C     -2.3879      4.4779      2.2113
C     10.0359     -5.2048      9.2995
H      1.9987      2.1435      6.1574
H      8.0484      5.2831      0.2268
H      8.1557      9.1303      6.7023
C     10.2542     -2.9315      0.5230
H      4.3155      7.9690      8.9488
H     15.8955     -6.2407      8.9282
H     -3.0396      5.8972      5.3386
H     12.2721     -3.0665      4.1608
H     14.1392      9.6988     10.7311
H      3.3255      0.7081     -0.5170
H     -0.8268      3.0989      9.2832
C     14.8717      7.6150     15.1322
C     14.3519      8.6633     11.3952
C      5.9632     10.8480     10.5833
H      2.1507      2.9062     10.6805
H     17.1248     11.2325     15.6121
C      4.3988      8.1791      4.6115
C      7.8213      7.2343      2.7839
C     20.5077     10.2292     14.1463
C     18.8346      8.6067     14.8539
C      4.2996      5.9967      6.2578
C      1.7379      4.8317      2.5889
C      6.1567      5.9427      0.4037
C      5.6344      7.6133      4.4682
C      7.9237      7.0978      1.3598
C      4.2956      4.9431      7.2581
C     14.3338     -7.9925      1.1016
H      8.2220      6.3496      5.0937
C      6.2748      7.4110      5.7240
H      9.5211      5.8087      0.7056
C      7.4370      5.7293      1.1893
H     -0.2295      3.0178      3.3325
H     11.0011     -5.2398     10.0240
O      7.4830      7.3618      5.9396
H      8.7246      8.9606     11.2610
H      2.2398      2.1285      3.0344
H     12.7955     -3.2889      2.4643
H      4.2657      4.7174      1.3506
H      5.1047      5.5144      4.3434
C     12.0865      7.6914     11.3951
C     15.7271      6.5794     15.7980
H     14.0030     -5.8377      9.3355
C     -1.8736      4.3316      4.4908
C      0.3289      6.7196      5.2393
H      4.7417      8.7501     10.7572
H      3.1051     -0.4370      6.3402
C      1.4035      5.7092      4.6341
H      3.2591      0.4761      1.5749
H     12.3431     -6.7531      8.2352
C      8.1052     -6.8087      8.8634
C      4.2555      0.6931      8.0861
O      6.2877      3.7429      5.2522
C      6.4613      7.7741      3.2089
C      9.4682     -2.8382      5.1852
C     12.6755     -6.5999      2.7061
C     -1.5473      6.5337      3.5180
H     17.3610      8.2910     20.5135
H     -3.3213      2.9614      4.9714
C      2.2755      0.3053      9.3421
C      0.6677      5.3245      3.4864
C      5.1311      3.1158      2.6935
H      9.2856     -4.3826      7.5313
H     10.3120     -0.9850      8.1967
H      7.4407     -1.7969      5.8987
C     14.7465     -6.2590      8.6882
C     -2.0298      5.4891      5.6051
C      3.6990      1.0948      2.3215
C      1.7218      4.2974      5.4614
C     14.6398     -6.4713      7.1924
C     15.2319     -8.8629      0.2796
H      4.2936      2.6410      1.1649
H      2.8889      2.2982     -0.9267
H     11.0933     -2.4604      6.0050
H      5.2595      1.1848      4.8177
C     12.6604     -3.9704      4.9208
C      9.1068     -6.1120      9.6507
H     17.7782      7.2062     14.4572
H     21.4324     10.6074     13.3350
C      8.3645     -1.2429      7.6326
H      9.8462      7.0918      2.0010
H      9.9887     -2.1703      4.3056
H      5.6516      1.5488      9.3926
H     14.4761     11.8200     12.6404
C     12.3277     -6.0689      7.4510
C      0.3946      3.5649      5.1981
O      8.2993      5.4225      4.6071
C     11.3555     -4.8225      5.5944
C      6.0551      1.9268      7.3374
C      5.0507      2.1193      6.5758
C      3.5503      0.7334      5.8370
H      6.8823      7.4493      8.2211
H      8.2154      9.9896      8.5732
H     14.3721     -4.0312      6.5277
C     14.7981     -8.0687      6.8962
C      3.9498      5.2963      4.8533
C      3.0475      2.6201      9.0245
H     19.9921     11.1083     14.7805
C      8.5055      6.9508     11.1455
H      3.7883      5.4363      8.2265
H     10.8138      6.4417     11.1309
H      7.2723      2.0550      7.2909
C      3.8630      2.8401      4.6969
C     17.2738      9.4172     18.6278
C      6.6340     -0.0442      8.7964
C      8.2275      9.0962      7.9353
C      5.4982      4.5407      8.0425
C      5.7295      1.1161      8.4539
H      1.1289      2.8253      9.2208
H      9.1434     -4.4211      9.4364
H     10.1353     -0.3561      6.5149
H     19.0441      9.5877     12.9583
H      8.4948      5.9553     11.8011
H     -1.3249      3.7588      6.7680
C     14.2840     10.1594     13.8303
H      3.1530      4.7633      9.7425
H      9.9317     -3.3775      2.4483
