258

C     19.6643      9.2103     13.9917
C      4.1663      1.4033      6.7595
C      3.2320      3.4622      1.0485
C      7.0709      5.0527      2.3898
H     -2.7610      3.1682      2.2593
C      7.5002      3.7379      2.8674
C      3.0659      4.1837      5.0815
C      6.8560      9.4064     10.9855
C     15.9257      7.1911     19.4408
C      6.2299      1.9507      3.9035
C      6.5744      8.2470     10.1809
C     13.5041      8.9896     13.7666
N     -0.3257      3.0346      6.1462
C     13.4060     -7.2251      0.5494
C      3.4182      3.8983      6.6601
H     13.2373     -7.4541     -0.4390
C     15.7132      6.3870     17.0329
C     16.6558     10.6751     16.6914
H      0.8298      0.3056      9.3234
H     -2.3431      2.3526      5.4084
H      6.3736     11.4822     10.4047
C     16.8995      9.3049     16.3006
H      7.8047      9.9215     10.6541
H      7.6982      4.0460      3.8463
H     12.5462      6.8361     10.6249
H     -1.5691      4.9723      6.8099
C      3.1517      2.5230      7.1383
H     10.2853     -2.6889     -0.1114
H      7.1863      1.7070      4.5679
O     14.7679     10.3655     15.0148
C      7.9698      0.2821      8.6735
C      6.8637      5.8435     10.1245
H     15.6596     10.0168     16.7622
H     14.6516     -7.2719      9.1927
C      6.3675      2.7322      2.5727
H      6.5739      5.3223      7.4821
H      7.2836      9.5849     11.9697
H      4.7961     -2.6575      8.8415
H      4.3849      7.2530     10.2976
C     17.5154     11.0563     17.8639
C      9.9533     -4.4267      5.0362
O     14.7866     -4.2575      4.6827
C     11.3577     -5.2003      7.2822
C      8.9746      8.2029     12.3696
C      7.4420      8.2199     13.2801
C      6.5068      7.5194     12.3432
H      4.8442      3.7046      1.3996
H     17.1208     10.3018     14.4529
H      0.8772      0.4642      4.4281
H      8.2247     -6.6811      8.3930
C      7.0300      7.1044     11.0262
C      7.6849      5.8835      3.4170
H     21.1217      9.6728     15.2465
C     -1.3624      6.5188      5.1957
H     15.0078      8.2189     20.5661
H      4.4625      0.6848      1.9689
H      5.1286     10.3852     10.7468
H      4.0368      7.1128      0.2163
C      9.6236     -1.2911      7.2652
C      5.7107      5.2537      9.3537
C     15.8705      7.7721     18.0631
C      4.8231      6.3492      0.7131
C     17.3201      9.3884     14.9171
H      9.0544     -4.9706      5.0671
H      8.4107      7.6531      3.2595
H      4.0564      1.4692     10.3100
H      6.0801     -0.1991     10.0342
H     17.4021     13.2048     17.6862
C      0.0781      2.5385      8.5265
C     12.9985      8.5185     12.1145
C      1.7542      1.8276      6.8578
C     12.1440     -6.5354      1.5013
H      5.6320      8.1753     12.1595
H     -3.6410      3.3998      4.6440
H      5.5216      4.7860      4.7391
H      6.0392     11.0469     12.2259
C     10.0016      7.3420     13.2835
O     14.7693     11.0211     12.6189
C      7.0383      8.4245      8.7168
C     15.9898      8.4515     20.1996
C      3.2683      1.5022      9.2433
C      3.3885      1.6917      4.5977
H     11.6631     -2.5427      1.0702
H      6.3047     -0.4065      7.0997
C      4.0833      3.3963      3.0616
H      9.0815     -2.3067      5.0147
C     10.8889     -4.4801      0.9173
C     10.9777      6.9363     12.2355
H     10.4192     -3.5895      7.1380
C      5.4965      2.7509      4.8858
H     18.3195     12.6863     18.6743
H      8.1782      0.9632      7.9887
C      2.5272     -0.7585      8.6424
C      4.9481     -1.5936      8.1768
C     -2.3456      5.2251      3.3248
C     16.1593      9.7404     19.5524
C      2.8736      3.7752      2.3689
C      4.8381      8.0485      9.8185
H      1.8997     -1.6083      8.9414
H     15.3406      8.2864     13.1518
H     -2.7887      4.4312      0.8027
H     14.7691     -9.3305     -0.6466
O      5.6178      6.8647      6.4882
C     13.5439     -4.8196      4.5579
H     16.8576     10.2775     20.4219
C     10.1640     -4.1361      3.4958
C     10.9395     -5.2313      2.9769
H      6.3926      9.6063      8.4064
C     10.2048     -5.5921      8.0065
H      1.4522      2.8392      4.9415
H     14.0367      7.8389     10.4272
H      6.6521      2.0944      1.5013
C      3.7799      2.0363      0.6629
C     12.9120     -4.1543      2.0868
C     -0.3753      4.0432      3.9640
C      7.3449     -1.7319      7.6496
H      1.0170      0.3749      2.8380
H      9.4555     -5.7226      7.1616
H     15.1752     10.3512     19.4292
H     14.0582      6.9992     13.5287
O     13.1511     -3.1176      6.2424
C      6.2377     -0.9535      7.9491
C     13.4856     -6.2506      6.8334
C     14.5677      7.9356     13.7193
C     13.4969     -5.1736      3.1127
H      8.2135      0.5939      9.6732
C      2.7177      1.1870      3.4540
C      0.3378      2.3705      7.1432
C     10.3180     -2.6592      6.7435
C     -2.7022      3.0989      4.5726
C     18.0419     12.2798     17.9111
C      2.7410      3.4413      9.9065
C     11.7291     -5.1276      1.7155
C      3.9582     -0.6324      8.2466
N      1.7416      0.1575      3.5864
H      2.0051      1.9407     -0.6073
C      3.0085      1.5844     -0.5975
O     17.3487      6.5957     15.6787
C      9.2752      6.6127      1.3119
H     17.9591      9.4393     19.3673
H      1.8215      1.0538      7.7148
C     -2.5550      4.3440      2.1198
C     10.0295     -5.6018      9.5480
H      1.7962      1.2026      6.0704
H      7.8270      4.9479      0.5127
H      8.1292      9.0391      7.2476
C     10.8089     -3.1684      0.7648
H      5.1249      7.6031      8.7610
H     15.9519     -6.2637      9.1029
H     -3.1960      5.2947      6.1567
H     11.9845     -3.3211      4.4818
H     13.7244      9.4532     10.7091
H      2.9018      0.4496     -0.6902
C     14.8571      7.5713     15.2318
H      4.6915      5.0342      9.9780
C     14.0587      8.7641     11.2619
C      6.0512     10.5836     10.9371
H      2.8416      3.1651     10.9757
H     16.5810     11.1346     15.7482
C      4.2363      8.5497      4.7206
C      7.4515      7.2195      2.9671
C     20.6119     10.2287     14.4319
C     18.8108      8.9938     15.1388
C      4.0736      6.2789      6.3010
C      1.9898      4.9421      2.5414
C      5.9936      6.2458      0.2967
C      5.5265      7.7296      4.4490
C      7.8467      7.2521      1.3951
C      4.2014      5.1611      7.2600
C     14.2241     -8.0713      1.2215
H      8.9385      6.2396      4.8581
C      6.4335      7.3823      5.6802
H      8.9055      5.4514      0.9646
C      7.1946      5.6238      1.1326
H     -0.4098      3.3205      3.2521
H     10.9489     -5.6860     10.1158
O      7.6161      7.1081      6.0152
H      9.3709      9.1976     12.1981
H      2.1805      2.2136      3.5904
H     12.4480     -3.4405      2.8137
H      4.4256      5.4279      1.1661
C     12.1772      7.3111     11.7028
C     15.6165      6.4967     15.6014
H     14.4932     -5.9320      9.6899
C     -2.0509      4.4385      4.5358
C      0.3921      6.7234      5.3225
H      4.1627      8.9094      9.9033
H      2.8821     -0.2113      5.6832
C      1.2649      5.6384      4.5217
H      3.2186      0.1216      1.4893
H     12.7058     -5.9937      8.8107
C      8.0255     -7.0757      9.3247
C      4.2111      0.8003      8.1429
O      6.0152      4.1223      5.3070
C      6.1673      7.9892      3.1053
C      9.9167     -2.9144      5.3636
C     12.6185     -6.6487      2.9008
C     -1.4634      6.5149      3.7544
H     16.8530      8.7129     21.0634
H     15.1901      8.8848     11.7437
H     -2.4407      2.2942      3.6719
C      1.9991      0.3871      8.9286
C      0.4985      5.0284      3.3514
C      5.2162      3.5243      2.4042
H     14.5718     -8.8931      7.7989
H      9.2450      8.1779      8.6752
H     10.4683     -0.8112      7.7568
H      7.3299     -2.5565      6.8524
C     15.0046     -6.3854      8.6508
C     -2.0693      5.2420      5.7217
C      3.5362      1.3306      2.1017
C      1.5215      4.5214      5.5405
C     14.9635     -6.7154      7.2191
C     15.2375     -8.8497      0.2666
H     11.7374     -7.5298      0.9624
H      4.9853      2.1103      0.4063
H      3.3978      1.7456     -1.4981
H     11.5655     -2.1771      6.7603
H      5.7597      0.9588      3.7686
C     12.5562     -3.9800      5.2747
C      8.9940     -6.4918     10.1494
H     21.1336     10.7699     13.8001
C      8.4352     -1.1135      8.2038
H     10.0978      6.7861      2.2369
H     10.2599     -2.2670      4.3977
H      5.8930      1.8684      9.6083
H     15.8567     10.8702     12.5004
C     12.5172     -5.6756      7.7107
C      0.5447      3.3579      5.1094
O      8.5480      5.4367      4.2708
C     11.2475     -4.9177      5.7646
C      6.4921      2.1754      7.4056
C      5.5954      1.9848      6.2486
C      3.5432      0.7935      5.6303
H      6.8491      7.6233      8.0732
H      8.8864      9.8369      8.5016
H     14.0289     -3.4263      6.5463
C     14.9504     -8.1791      6.8118
C      3.8340      5.5028      5.0274
C      2.8598      2.7836      8.7779
H     20.3967     10.9076     15.0537
C      8.3772     -5.9157     11.3083
H      3.4813      5.3930      8.2010
H     10.6991      5.8569     12.1230
H      7.4958      2.2785      6.9855
C      3.8852      3.0880      4.5034
C     17.4828      9.7017     18.5908
C      6.5137      0.0935      8.9237
C      8.5117      8.7859      8.3082
C      5.5119      4.9673      7.8767
C      5.8628      1.3525      8.5092
H      1.1038      2.7318      8.8324
H      9.6303     -4.5669      9.6842
H      9.3292     -1.1113      6.2556
H      8.3090     -6.4037     12.2659
C     14.3314     10.0901     13.9620
H      2.5818      4.6416      9.8467
H     10.1122     -3.4037      2.6281
