261

C     19.9610     -4.1325      1.1712
N     -1.8042     10.6046      1.3614
C      3.8821      1.4930      6.9097
C      2.2780      2.9585      1.3716
C      7.2332      4.9331      2.4662
H      9.2737     -8.8210      2.5493
C      7.0820      3.7256      3.0072
C      3.5354      3.8475      5.4091
C     16.1945     -5.7933      6.3268
C      5.9395      1.5386      3.8622
C      5.6366     -4.0134      9.5802
C      0.9958      8.6621      0.6334
N     -0.4986      2.7938     -6.7046
C      0.0463      5.6501      0.5463
O     -1.3862      2.2390      1.2596
C      3.3117      4.1455      6.8977
C     15.7031     -6.7426      4.4850
C     16.6602     -2.4619      4.2167
H      9.0720     -9.1068      4.4947
H     18.1505     -6.3383      1.9832
C     17.1489     -3.7235      3.6922
H      3.8201     -5.3575     10.2007
H      7.0959      3.9424      4.3184
H      0.5009      7.1615     -2.1649
C      2.9193      2.5670      7.4420
H      6.6925      0.6674      4.1938
O      1.9323     10.2608      2.5195
C      8.0239     -0.0955      8.4503
C     -5.9785      5.9542     -2.9858
H      2.2100      0.5387      6.0408
H      1.8766      7.6318     -3.5418
C      6.2377      2.4163      2.8203
H     -7.0123      4.2595     -5.6243
H      4.7599     -1.9139      9.7855
H      5.2998     -5.9588      9.3279
C     17.7719     -2.1693      5.1609
C      9.8249     -4.7466      5.0468
O     14.9629     -4.4179      4.6853
C     -1.5907      7.7718     -5.7903
C     -4.0342      8.2939     -0.8077
C     20.7074     -4.9709      0.0493
C     -6.4014      7.2427     -0.6814
H      4.9404      3.8287      1.4024
H     17.1999     -2.5305      1.5838
H      2.7160     -1.0229      3.3627
H     -4.2907      5.4864     -4.6860
H      1.5612     11.2147      2.2563
C     -5.4504      6.5028     -1.4701
C      7.9095      6.0070      3.5825
H      8.7737      7.7070      2.7024
C     11.8578     -6.1532      5.1542
H     16.0035     -4.7185      8.4270
H      2.0715     -0.0452      1.3329
H     15.0270     -5.9886      0.3345
C      9.6922     -1.3677      7.2758
C     -7.1784      5.5283     -3.4771
C     16.0160     -5.3512      5.0136
C     -8.2281      5.9360     -0.1391
C     17.5987     -3.4688      2.2197
H      9.2166     -5.6115      5.3604
H      8.0009      8.2142      4.0602
H      2.9892      1.4628     10.5731
H      6.2541     -0.6782      9.7466
H     17.6365     -0.4653      3.8801
C      0.1026      3.1738     -4.0983
C      0.5684      8.4671     -0.9106
C      1.7413      1.7070      7.5555
H     -2.7562      8.7778     -3.4222
C     -0.5582      6.3761      1.4954
H     -7.2163      7.6774     -1.2393
H     10.5425     -9.8279      4.1937
C     -2.7389      7.5102     -0.4126
O      1.6825     10.9727      0.4417
C      6.7706     -4.5530      8.7712
C     16.4952     -4.6182      7.3917
C      3.2420      1.4982      9.3184
C      2.7319      1.6595      4.6958
H     -2.2149     11.5391      0.9012
H     -1.9157     10.2601     -0.6624
H      5.3043     -0.8468      7.2748
H      2.7084      3.4216     10.8370
C      3.9319      3.0154      3.0309
H      8.2697     -3.5894      6.5790
C     -1.8555      8.4849      0.5756
C     -1.6425      7.4008     -1.5196
H     10.7531     -3.3676      7.4826
C      5.1718      2.0435      4.9945
H      3.3044     -0.4140      5.4329
H      8.1277      1.0057      7.9898
C      2.5751     -0.6286      8.4583
C      4.7633     -1.8124      8.5753
C     10.8783     -7.6438      3.6748
C     16.8114     -3.5297      6.5808
C      2.5520      3.6519      2.6882
C      4.7555     -5.0675      9.6014
H     16.3567     -4.5429      1.2148
H     10.6443     -8.2447      1.6576
H      1.9334      5.2025     -0.9482
O      5.5801      6.2703      6.4577
C     13.7265     -4.9101      4.8249
H      4.6049     -2.8077      8.1499
C     10.3706     -4.3515      3.6707
C     10.8103     -5.4616      3.0350
H      6.1034     -5.0954      7.9982
C     -2.7756      7.6834     -5.1280
H      2.4391      4.0276      5.0737
H      1.4891      9.1111     -2.7270
H      6.7119      1.8926      1.9046
H      0.9115      3.0348     -3.3723
C      2.9450      1.6957      1.0951
C     -0.0662      8.5274      2.0662
C     -0.5225      3.0044      1.4548
C     -0.1165      3.8645     -9.0990
C      7.3022     -2.2421      7.6823
H     -3.5453      7.6919     -5.9130
H     16.1354     -2.7973      6.1439
H      0.3185      5.9824     -0.4904
O     -0.0425      9.7574     -6.8170
C      6.0815     -1.3241      7.9810
C      0.8496      6.8307     -6.1119
C     15.2000     -5.0156      0.9732
H     15.2458     -4.4196      3.1553
C     13.6163     -5.2451      3.1086
H      8.7794      0.1922      9.3176
C      2.5549      0.9084      3.4934
C      0.2388      2.2465     -5.3197
C     10.1700     -2.6958      6.6682
C      9.9857     -9.3962      4.9559
C     18.4345     -1.2261      4.4049
C      2.9798      3.7081      9.7626
C      0.8170      2.6183      0.9706
C     -1.3402      7.6859      1.7787
C      3.7965     -0.6538      8.1602
N      2.3690     -0.2940      3.8455
H      3.7903      2.1489     -0.6050
C      3.0074      1.5641     -0.3379
O     17.4421     -6.8942      2.4201
C     -3.4637      6.3259      0.2795
H     19.1534     -3.7027      5.9586
H     -0.7935      1.7372     -4.8427
C     10.0756     -7.8389      2.5450
C     -2.7399      7.6697     -3.7842
H      1.2089      1.4060      6.6209
H     -5.5416      4.5213      0.5849
H      8.8603     -3.8473      8.9361
C     -2.0593      9.7790      0.4509
H      1.3515      6.0960     -3.9710
H     -0.8968      9.9153     -8.7766
H      1.7524      9.8730     -0.8960
H      2.0455      1.8713     -0.8694
H     -1.0129      3.1910     -3.5358
C     14.9609     -5.4122      2.6071
H     -1.6949     10.7999      2.3158
C      1.0124      9.6427     -1.6844
H     15.7395     -2.3371      4.8137
C      4.2008      7.8756      4.1790
C      7.8552      7.4988      3.2858
C     21.1199     -3.3463      1.7094
C     18.8929     -4.2877      2.2705
C      4.1838      6.0445      6.2679
C      1.7939      4.8519      2.4451
C     -7.0674      6.4068      0.3781
C      5.6589      7.4512      4.4309
C     -4.6958      6.5985      0.6373
C      4.2316      5.1396      7.5910
C      1.3520      5.2859      1.0853
C      6.2072      7.3826      5.7723
H     -3.1163      5.4183      0.1499
H      0.7902      2.8223     -0.0442
C     -5.7438      5.5691      0.9281
H     -0.6078      2.8231     -9.4648
O      7.5085      7.4087      5.8856
H     -3.9516      9.1314     -1.3145
H     22.1449     -3.7049      1.2977
H      1.8804      3.1379      3.5780
H      0.0922      9.4913      2.4673
H      3.3834      4.9281      0.4493
H      4.6728      5.4886      4.1106
C     -0.3281      7.4972     -1.4740
C     15.7891     -6.8723      2.7416
H      3.0114      6.5571     -3.5165
C     10.6384     -8.0855      4.9371
C     13.4741     -6.2481      5.4778
H     17.5482     -4.7331      7.8507
H      1.7362      2.1360      4.8300
C      1.3442      5.6622     -8.0070
H      1.7985     -1.3213      8.4575
H      0.8664      1.3799      2.1853
H     16.8104     -1.7523      3.4223
H     -0.3490      6.7598     -4.3780
C     -4.6532      5.8748     -3.5529
C      4.2893      0.8163      8.2145
C      6.4904      7.8469      3.2076
C      9.0904     -3.6229      5.7939
C     -0.0162      6.3945    -10.1056
C     11.6421     -6.4238      3.7701
H     -8.8866      6.5858     -0.5736
H      9.9836     -9.9173      5.9672
C      1.9880      0.7918      8.8600
C      0.7703      5.2734     -9.3167
C      4.9930      3.0351      2.2298
H      1.4797      4.6275     -5.0195
H      7.3055     -5.4740      9.2720
H     10.6538     -0.8400      7.2800
H      6.8935     -2.0674      6.7396
C      2.1570      6.7422     -4.1758
C     11.1091     -7.1649      5.9711
C      2.1101      0.8795      2.0311
C      1.1148      4.5204     -7.1263
C      2.2104      6.4008     -5.6515
C      2.1919      4.8781      0.1311
H     -1.3360      5.7073      1.4525
H      4.1657      1.5774      1.3607
H      3.1389      0.5364     -0.5723
H     -4.1450      4.9911     -3.2277
H     10.8975     -2.3222      6.1193
H      5.0324      0.9826      3.5494
C     -0.4834      9.0762     -8.1036
C     -3.8406      7.1511     -3.1036
H     -8.4774      5.4822      0.8913
H     20.9849     -2.2930      1.3076
C      8.5318     -1.2678      7.7925
H      9.6802     -6.8453      2.7145
H      8.9667     -2.9606      4.9305
H      5.9941      2.1158      8.9977
C     -0.1887      7.2394     -5.3910
C      0.2230      3.5672     -7.6066
O      8.1925      5.4526      4.6802
C     -1.7481      7.9877     -7.2733
C      6.3871      1.5209      7.2590
C      5.2381      1.7817      6.2611
C      3.2599      0.6684      5.7055
H      8.1828      5.8201      5.5646
H      7.2190      2.4167      7.1250
H     -7.8351      3.7737     -4.3702
H      7.7837     -2.8835      9.5740
H     -0.3253      9.9549     -5.9185
H     19.3758     -0.7370      4.8136
C      2.0302      4.8965     -5.8919
H     -0.7451      4.1908      1.6962
C      3.8611      5.3264      4.9535
C      3.2117      2.7748      8.7783
H     21.6082     -3.0292      2.7938
C     -4.3768      7.4470     -1.9242
H      3.8903      5.4549      8.5211
H     -1.8383      6.5883     -2.1340
H      7.2479      1.0273      6.5978
C      3.9363      2.6252      4.4599
C     18.1458     -3.1847      6.0755
C      6.5666     -0.2478      8.7462
C      7.5556     -3.4494      8.6668
C     -7.2709      4.6206     -4.6121
C      5.7184      1.1026      8.3976
H      0.5931      4.1608     -4.3198
H      2.3811      3.7248      0.4386
H     19.4172     -3.6671      0.3639
H     -5.6359      5.4672     -1.1148
H     -1.4849      2.9038     -6.6871
C      1.4219     10.0727      1.1794
H      3.1758      4.8219      9.7957
H      9.9765     -3.1713      3.3161
