266

C     19.5344      9.1491     13.7657
C      4.0469      1.7416      7.0385
C      2.9938      3.4129      1.0652
C      7.0794      5.0490      2.8471
H     -3.0615      3.1852      2.3755
C      7.4195      3.5731      3.3165
C      3.4605      4.2625      5.5925
C      6.7847      9.3180     10.5733
C     15.9249      7.2966     19.5050
C      5.8806      1.6984      4.1311
C      6.7026      8.1072      9.9245
C     13.6943      8.8920     13.7006
N     -0.1232      3.0658      6.1246
C     13.4475     -6.8300      0.5181
C      3.1778      4.2134      7.0660
H     13.8548     -6.7782     -0.5915
C     15.6064      6.2557     17.4003
C     17.0503     10.7799     16.5011
H      1.3035      0.6733      8.7042
H     -2.0063      2.3620      5.4362
H      5.9525      5.5149      3.0258
H      5.5654     10.6197     11.8343
C     16.7304      9.2762     16.1786
H      7.7714      9.5366     10.2486
H      7.5958      3.8702      4.3684
H     12.5990      6.9452     11.0749
H     -1.0310      5.0115      6.1955
C      3.1310      2.7936      7.7656
H      9.3403     -2.4974      0.4670
H      7.1037      1.3334      4.4967
O     14.7694     10.8766     14.8218
C      8.4654      0.4049      7.9706
H     15.7579     -7.9329     -0.4825
C      6.7325      5.9328      9.9274
H     14.7166     -7.0308      9.4725
C      6.3006      2.5349      2.8341
H      6.0643      5.4385      7.4422
H      7.0033      8.9750     11.5760
H      5.1569     -2.6664      7.9834
H      4.6972      7.4618      8.8706
C     17.2175     10.8963     17.7515
C     10.1167     -4.7553      5.1554
O     14.6980     -4.6221      5.1251
C     11.1634     -5.8034      7.0590
C      8.5682      8.0095     12.3306
C     20.2834      7.8832     13.3002
C      6.1726      7.2848     -0.6136
H      5.3328      3.8477      1.4031
H     16.8133      9.8557     13.9803
H      2.0724     -0.3255      2.7714
H      8.1071     -7.4031      8.2266
C      6.9231      6.9783     11.0261
C      7.7687      6.1174      3.4203
H     21.2162      9.5078     14.7716
C     -1.1961      6.4266      4.9715
H     14.7339      8.8501     20.1693
H      4.8494      1.4571      2.1514
H      6.7820     11.5690     10.9096
H      4.0281      7.2222     -0.1798
C      9.9207     -1.3561      6.8995
C      5.6700      5.2075      9.6944
C     15.9088      7.5602     17.9747
C      4.3451      6.3785      0.4351
C     17.3471      9.4033     14.7847
H      9.4574     -5.8665      5.0787
H      8.2484      8.1078      2.9883
H      3.5207      0.7316     10.6619
H      7.4832      0.1722      9.8836
H     18.2842     12.3937     17.5652
C     -0.4255      3.4526      8.5691
C     13.3105      8.3683     12.3465
C      1.5983      2.5135      7.1982
C     12.4029     -6.2868      1.4546
H      5.7307      8.1327     -1.3586
H     -3.2546      2.9959      4.5759
H      6.0794      3.9025      6.2825
H      5.4968     10.9176      9.7284
C      9.9832      7.6419     12.8637
O     14.9574     10.8646     12.5731
C      7.1852      8.1590      8.4046
C     15.8132      8.6842     20.2505
C      3.4633      1.0570      9.3552
C      3.4726      1.8952      4.7112
H      9.9200     -2.6664      2.1292
H     19.0788     11.2110     18.7562
C      4.1527      3.7886      3.3137
H      9.1416     -3.4151      6.4886
C     10.6801     -4.3070      0.9447
C     10.8045      7.1111     11.9624
H     10.9122     -3.2236      7.2044
C      5.6427      2.8167      5.1926
H     14.2032     10.9846     11.7612
H     17.9238     12.7543     19.0916
H      8.2840      2.9094      3.3106
H      8.5827      1.2628      7.5374
C      2.7955     -0.6399      7.8770
C      5.2175     -1.5653      8.3294
C     -2.0553      5.0375      3.3636
C     16.3432      9.8204     19.4693
C      3.0323      3.8246      2.3899
C      5.2214      7.7782      9.6869
H      2.2978     -0.9846      7.0900
H     16.0165      8.8936     13.8915
H     -3.5156      4.6163      1.9538
H     14.4613     -9.0911     -0.4890
O      5.1977      7.3594      6.7091
C     13.5475     -4.9974      4.6680
H     16.7459     10.3611     20.1583
C     10.2584     -4.5467      3.5403
C     11.0963     -5.3397      2.9030
H      6.1666      8.7632      8.1138
C     10.1964     -5.4230      7.9820
H      1.1223      2.2979      4.4929
H     14.3973      7.6284     10.8122
H      7.0692      1.9975      2.1095
H     -1.4509      2.8957      8.9344
C      3.7798      2.2108      0.8584
C     13.0226     -4.0927      2.1107
C     -0.1803      3.9857      3.8959
C      7.4705     -1.8565      7.5138
H      1.2886      0.3610      4.2559
H      9.1691     -5.5189      7.4431
H     15.6478     10.8056     19.0259
H     14.7939      7.1271     13.2059
O     13.1155     -3.5012      6.5841
C      6.6830     -0.8685      8.1664
C     13.3823     -6.2346      6.9230
C     14.9872      7.9494     13.9382
C     13.6571     -5.0843      3.0517
H      9.4403      0.3978      8.4503
C      2.6634      1.6893      3.2648
C      0.3826      3.2127      7.2218
C     10.6468     -2.5263      6.4303
C     -2.2637      2.9126      4.4343
C     17.9747     11.9429     18.4303
C      3.1634      3.3464     10.1031
C     11.7739     -4.9386      1.6386
C      4.3176     -0.6239      7.9154
N      1.7476      0.4959      3.2767
H      2.1551      1.0451      0.2300
C      3.1620      1.3089     -0.0981
O     17.1893      6.3262     15.7462
C      9.1148      6.3907      1.0775
H     18.3416      9.3952     18.9940
H      1.8606      1.3421      7.7649
C     -2.5616      4.3097      2.2783
C      9.9636     -5.4499      9.4491
H      2.2304      1.7966      6.1916
H      7.3054      4.4418      0.6791
H      9.3734      9.0842      8.0559
C     10.0000     -3.1604      1.1708
H      5.0605      8.8747      9.4201
H     15.9497     -6.0800      8.7956
H     -2.4413      4.9500      6.0569
H     12.2845     -3.3595      4.4101
H     14.5622      9.2970     10.7528
H      3.7512      0.3544     -0.1855
H     -0.7553      4.5292      8.6837
C     15.0207      7.4557     15.3495
H      4.5836      5.4677     10.1541
C     14.4353      8.3850     11.4220
C      6.1958     10.7332     10.7408
H      3.1857      2.9501     11.1397
H     17.0021     11.6006     15.6546
C      4.1857      8.4197      4.4362
C      7.6011      7.3371      2.7385
C     20.4396     10.0584     14.4173
C     18.5659      8.7764     14.8775
C      4.0097      6.3013      6.5859
C      1.9520      4.9841      2.3641
C      5.6945      6.2664      0.3594
C      5.5460      7.6010      4.1571
C      7.7547      6.7153      1.3503
C      4.1757      5.1796      7.7461
C     14.4341     -7.6714      1.0289
H      8.7851      4.7282      4.4969
C      6.0238      7.1711      5.6251
H      9.0766      5.4610      0.6675
C      6.9415      5.3910      1.3217
H     -0.2397      3.3403      3.0561
H     10.8373     -6.0101     10.0406
O      7.2829      7.1705      5.7923
H      9.2977      8.5667     11.8564
H      1.9062      2.4961      3.3145
H     12.8670     -2.9870      2.3536
H      4.0734      5.4504      0.8478
H      4.7037      5.4204      4.8431
C     12.1539      7.5774     11.8241
C     15.6075      6.3021     15.8809
H     14.1068     -5.5995      8.9472
C     -1.5313      4.1904      4.3380
C      0.2842      6.5313      5.3594
H      4.9291      7.2081     10.6280
H      2.4881      0.4048      5.9267
C      1.4134      5.6208      4.8414
H      3.1126      0.5890      1.6994
H     12.3934     -6.1988      8.8635
C      8.0915     -6.9177      9.2120
C      4.5542      0.7534      8.3343
O      6.4737      3.8690      5.4142
C      6.3750      8.1179      3.1288
C      9.6280     -3.3547      5.6432
C     12.9988     -6.5753      2.8325
C     -1.4945      6.3058      3.5515
H     16.4285      8.3687     21.1141
H     15.2221      8.9093     11.9787
H     -2.2307      2.4301      3.3711
C      2.2411      0.2942      8.6623
C      0.6995      5.0955      3.3896
C      5.2335      3.6206      2.5751
H     14.2886     -8.3184      8.0077
H      7.8569     10.0208      8.8445
H     10.9005     -0.6525      7.1356
H     15.1485     10.2849     15.4123
H      6.8865     -1.8552      6.5805
C     14.8737     -6.2513      8.7387
C     -1.6576      5.1309      5.4561
C      3.6571      1.3481      2.1231
C      1.6525      4.3421      5.6115
C     14.8079     -6.6198      7.3361
C     15.1377     -8.6142      0.2354
H     11.3885     -6.8685      1.0229
H      4.8133      2.2342      0.4131
H      3.0519      2.0582     -0.8203
H     11.4781     -2.3752      5.8954
H      5.0879      1.0599      4.2688
C     12.5605     -4.1361      5.3942
C      8.9102     -6.2328     10.1024
H     17.4792      6.8837     14.9924
H     20.6816     10.8030     13.7160
C      8.6904     -1.0110      7.3171
H      9.6921      6.5131      1.9823
H      9.3864     -2.5860      4.8105
H      5.7295      2.1890      9.3692
C     12.4055     -5.7586      7.7135
C      0.7333      3.2086      4.8897
O      8.7048      5.8479      4.2432
C     11.2942     -5.1157      5.7763
C      6.3798      2.1471      7.5115
C      5.4866      2.1780      6.4948
C      3.3173      1.1663      5.8919
H      7.3021      7.2350      7.9091
H      5.7333      3.7255      8.0191
H      8.0918      9.3606      6.9309
H     12.6938     -2.5928      6.7646
C     14.7770     -8.0926      7.1028
C      3.9788      5.5245      5.3630
C      3.1468      2.4920      9.1323
H     19.9332     10.5082     15.5391
C      8.4039      6.8668     11.4955
H      3.4734      5.5432      8.4105
H     10.3190      6.2468     11.6501
H      7.2468      2.6286      7.4380
C      4.1422      3.2231      4.6920
C     17.3591      9.5072     18.4562
C      7.0029      0.3146      8.8294
C      8.2999      9.0535      8.1126
C      5.5243      4.8070      8.1932
C      5.8571      1.4218      8.5816
H      0.0214      3.4617      9.3813
H     10.7470     -4.8557     10.0180
H     18.7199      9.4904     13.0431
H      8.3549      5.8319     12.0066
C     14.2832     10.3011     13.6077
H      2.7389      4.3767      9.8418
H      9.8509     -3.5190      3.0445
266

C     19.5124      9.0579     13.7721
C      4.0275      1.6848      7.0579
C      2.8168      3.2820      1.2478
C      6.8030      5.1104      2.8421
H     -2.6204      3.3817      2.8270
C      7.4557      3.5458      3.2185
C      3.2718      4.1000      5.5634
C      7.1624      9.4558     10.6969
C     16.0293      7.3155     19.4993
C      5.9902      1.7802      4.2296
C      6.6520      7.9833      9.7447
C     13.7999      8.6373     13.5859
N     -0.2141      3.2569      6.1052
C     13.5488     -6.8056      0.4508
C      3.2653      4.1991      7.3526
H     12.8784     -7.0101     -0.3689
C     15.6907      6.3120     17.4228
C     16.8028     11.0112     16.5415
H      1.4006      0.3341      9.1187
H     -1.9160      2.0434      5.3340
H      5.6628      5.3623      2.8672
H      5.4047     10.6388     11.6265
C     16.7276      9.3822     16.2218
H      8.2016      9.4692     10.3746
H      7.6955      3.6129      4.2011
H     12.6564      6.9226     10.6112
H     -0.5790      4.9841      6.2655
C      3.0704      2.8476      7.6982
H      9.6863     -2.9731      0.2022
H      6.7906      0.8126      4.3640
O     14.8405     10.8146     14.7414
C      8.4400      0.3501      8.1913
H     15.8809     -7.9740     -0.4932
C      6.9580      5.7920     10.0449
H     15.1998     -7.1653      9.2872
C      6.2803      2.5072      2.9105
H      6.4478      5.5102      7.8026
H      6.9531      9.2060     11.7072
H      5.2084     -2.5183      8.3619
H      4.9724      7.2501      8.6750
C     17.3070     10.7923     17.8947
C      9.9766     -4.6995      4.9748
O     14.7605     -4.5103      5.2111
C     11.2929     -5.5837      7.2302
C      8.7158      8.1472     12.3171
C     20.3205      7.8894     13.1639
C      6.4761      7.1475     -0.5800
H      5.0146      3.9085      1.4492
H     16.9746     10.2124     14.4355
H      1.4908      0.0098      2.6239
H      8.5395     -6.9624      8.1574
C      7.0377      6.8353     11.0193
C      7.7797      6.1099      3.4918
H     21.2165      9.4839     14.7343
C     -1.1653      6.4854      5.0866
H     15.3287      8.9702     21.1237
H      4.7404      1.0731      2.5363
H      6.5629     11.6536     10.7870
H      3.8922      7.0574     -0.5412
C      9.9407     -1.1326      6.9969
C      5.6935      5.2261      9.6507
C     15.9409      7.6722     18.0658
C      4.2713      6.3724      0.3783
C     17.4102      9.3367     15.0307
H      8.9404     -5.4002      5.4821
H      8.5149      7.9670      2.6716
H      3.6119      0.4216     10.1485
H      6.6600      0.2290      9.6742
H     18.0290     12.5728     17.6164
C     -0.4499      3.4153      8.4767
C     13.2298      8.2862     12.2512
C      1.7531      2.4214      7.4416
C     12.4164     -6.4270      1.3243
H      5.4895      7.7739     -0.4020
H     -3.1411      3.3130      4.7926
H      6.4439      4.0024      6.6027
H      6.3234     10.7979      9.5944
C      9.8330      7.6914     13.2030
O     15.0345     10.9074     12.5636
C      7.1295      8.1651      8.4318
C     16.0089      8.6813     20.3074
C      3.3484      1.0696      9.1822
C      3.1978      2.0704      4.7618
H      9.8333     -2.6039      2.1001
H     19.1046     11.8394     18.9365
C      4.1937      3.6558      3.2997
H      8.9124     -3.5698      6.0553
C     10.5219     -4.3575      1.0897
C     10.8342      7.3195     11.8951
H     10.8761     -3.1986      7.3206
C      5.6113      2.7886      5.1360
H     15.0706     10.5653     11.5696
H     17.2473     12.5813     19.1209
H      8.3652      3.4951      2.6503
H      8.3821      1.1859      7.5007
C      2.6556     -0.8052      7.9141
C      5.2580     -1.4583      8.1744
C     -1.9579      5.0416      3.0668
C     16.2269      9.8761     19.3928
C      2.9355      3.8663      2.5080
C      5.2570      8.0608      9.4951
H      2.0976     -1.3591      7.1007
H     16.3930      8.3897     13.6081
H     -3.1900      5.0179      1.5883
H     14.7680     -9.0978     -0.5758
O      5.2327      7.2428      6.6031
C     13.5395     -5.0275      4.6694
H     16.7158     10.6116     19.7122
C     10.2936     -4.6745      3.6459
C     11.1435     -5.4310      2.9993
H      6.3626      8.3784      7.4473
C     10.2307     -5.4975      7.9556
H      1.0503      2.3610      4.7690
H     14.3934      7.4476     10.8412
H      6.6666      2.0862      2.1891
H     -1.2674      2.5583      8.4695
C      3.9299      2.3292      0.8537
C     12.9200     -4.0490      1.8985
C     -0.1142      3.8688      3.8807
C      7.4543     -1.6243      7.4563
H      1.0176      0.6365      3.8237
H      9.4681     -5.2898      7.3305
H     15.3875      9.9671     18.7207
H     15.2680      7.2337     13.3117
O     13.0721     -3.5610      6.5192
C      6.4188     -0.9276      8.0338
C     13.4040     -6.3190      6.6400
C     15.2241      8.0340     13.9292
H     15.5848      8.8199     16.0494
C     13.8846     -5.1262      3.0217
H      9.2471      0.6798      8.8171
C      2.7669      1.5548      3.3139
C      0.3532      3.1143      7.3738
C     10.5451     -2.4437      6.4400
C     -2.2705      2.7351      4.6539
C     17.8241     12.0110     18.4540
C      3.2271      3.3020     10.2187
C     11.8679     -5.0151      1.8274
C      4.0901     -0.7317      8.0711
N      1.9026      0.5038      3.3599
H      2.5406      0.9590      0.1820
C      3.2326      1.5443     -0.2635
O     17.1065      6.3001     15.8715
C      9.2113      6.4328      1.1161
H     18.2936      9.2345     19.2138
H      1.1993      1.2232      7.6877
C     -2.4645      4.3798      2.0377
C     10.0743     -5.4519      9.4291
H      7.1795      4.6723      0.4571
H      9.1241      8.9812      8.6056
C      9.9718     -3.0708      1.1970
H      5.0726      9.0545      9.0989
H     15.3800     -5.4008      8.9219
H     -2.0964      4.8948      6.6366
H     11.8748     -3.2533      4.8838
H     14.1624      9.2178     10.5677
H      3.9930      0.9136     -0.7659
H     -0.8506      4.4346      8.5553
C     15.1157      7.6298     15.3067
H      4.7235      5.6581     10.1276
C     14.4189      8.3314     11.3082
C      6.1515     10.7231     10.5433
H      3.4759      3.3609     11.2751
H     17.6074     11.5410     16.1282
C      4.2928      8.4182      4.5374
C      7.5049      7.4153      2.6677
C     20.4319     10.0673     14.3869
C     18.5264      8.6158     14.7175
C      4.2356      6.2208      6.6700
C      1.9833      4.9682      2.5499
C      5.5977      6.3088      0.3292
C      5.4981      7.4380      4.2132
C      7.6342      6.8147      1.2540
C      4.1340      5.3503      7.7788
C     14.3406     -7.7418      1.0790
H      9.3487      4.8966      4.1194
C      6.0816      7.2303      5.5053
H      9.1367      5.5419      0.6838
C      6.9240      5.5295      1.2919
H     -0.1824      3.2082      2.8948
H     10.5117     -6.4352      9.7857
O      7.2339      7.1318      5.8848
H      8.3945      9.0797     11.5546
H      2.3806      2.4867      2.9347
H     12.2343     -3.1789      2.0175
H      3.2220      6.0862      0.8820
H      4.6026      5.3788      4.5068
C     12.1857      7.5933     11.6297
C     15.6585      6.2348     15.8272
H     14.0225     -5.5993      9.1595
C     -1.6468      4.1976      4.4115
C      0.3878      6.5532      5.2353
H      4.5842      8.0973     10.4894
H      3.0274      0.1133      5.7220
C      1.4041      5.5879      4.6067
H      3.6177      0.2357      1.6290
H     12.7293     -6.2640      8.7252
C      8.0963     -7.0136      9.2420
C      4.3525      0.7521      8.1441
O      6.4853      3.9041      5.5796
C      6.2093      8.0689      3.0886
C      9.7665     -3.3145      5.4906
C     12.8659     -6.6766      2.8192
C     -1.1926      6.3576      3.5162
H     16.9866      9.0753     20.6682
H     15.4422      8.0073     11.5968
H     -2.7036      2.0257      3.9883
C      2.2921      0.2933      8.7151
C      0.7782      5.1351      3.4677
C      5.2645      3.3865      2.4948
H     14.2012     -8.4833      8.0675
H      8.1475     10.4665      8.1445
H     10.4979     -0.3355      7.7470
H     15.5668     10.2965     14.8945
H      7.2915     -2.6048      6.5931
C     14.8331     -6.3420      8.6706
C     -1.6225      5.1112      5.7753
C      3.6691      1.2639      2.0114
C      1.8368      4.3455      5.4796
C     14.5694     -6.6704      7.1811
C     15.2519     -8.5992      0.2116
H     11.4300     -7.1003      1.2221
H      5.0008      2.5661      0.5487
H      2.9210      1.8683     -1.1855
H     11.4486     -1.9760      6.1169
H      5.1281      1.1771      4.2660
C     12.5308     -4.1402      5.4630
C      8.9596     -6.2096      9.9234
H     17.2193      6.8288     15.1002
H     20.7655     10.8431     13.7392
C      8.6474     -0.8832      7.3841
H      9.8654      6.5075      1.9699
H      9.0434     -2.8777      4.6221
H      5.5712      2.0380      9.3411
C     12.5882     -5.9581      7.7085
C      0.7804      3.3288      5.0793
O      8.7324      5.8061      4.3875
C     11.3476     -5.1499      5.7264
C      6.3841      2.2667      7.4817
C      5.4553      2.1402      6.5227
C      3.3085      1.2609      5.8480
H      7.4270      7.1560      8.1722
H      5.4576      3.8319      8.1332
H      8.0176      8.9901      6.9084
H     12.8777     -2.7937      7.0554
C     14.7758     -8.1650      7.0837
C      3.8046      5.5495      5.2298
C      3.3339      2.4848      9.1784
H     20.1039     10.8261     15.3671
C      8.3916      6.8508     11.2712
H      4.1179      5.9840      8.7178
H     10.7230      6.4039     11.8237
H      7.0874      2.8987      7.6024
C      4.2129      3.1886      4.7586
C     17.4269      9.4738     18.5132
C      6.9297      0.4054      8.7476
C      8.1941      9.0980      8.1432
C      5.5939      4.9556      8.0769
C      5.7528      1.2404      8.5442
H      0.3593      2.8546      9.0687
H     10.3818     -4.3719      9.7346
H     19.3736      9.7432     12.9727
H      8.5087      6.1087     12.0372
C     14.2306     10.4273     13.5213
H      3.0230      4.3577      9.9854
H     11.0016     -3.6516      3.5711
