262

C     19.5454      9.2906     13.8314
C      3.8353      1.4564      6.9491
C      3.2628      3.3860      1.3370
C      7.3097      5.0149      2.3269
H     -2.4980      3.5912      2.2872
C      7.8929      3.6578      2.7662
C      3.2655      4.3247      5.3782
C      6.9380      9.7457     10.6182
C     15.9099      7.1893     19.4722
C      6.1098      1.9037      4.2997
C      6.4742      8.5192      9.7508
C     13.7686      9.0043     13.6825
N     -0.1449      3.4113      6.3071
C     13.6800     -6.8914      0.5102
C      3.2021      4.1747      6.9942
H     13.5968     -6.7493     -0.6360
C     15.7151      6.3946     17.2856
C     16.9266     10.7974     16.3503
H      0.9147     -0.1934      9.3497
H     -2.4631      2.2284      5.2173
H      6.1675      4.5935      2.6640
H      6.4774     11.9731     10.2225
C     16.7576      9.2053     16.1309
H      8.0534      9.5662     10.5772
H      7.9798      3.8933      3.7764
H     12.6711      6.1678     11.2198
H     -1.9021      5.2526      6.4715
C      2.8619      2.6795      7.5714
H     10.1097     -2.3596      0.0261
H      6.9561      1.1232      4.8142
O     15.0225     10.6240     14.9894
C      8.2940      0.3010      8.2751
C      6.8877      5.9790      9.8861
H     15.5947     -7.3524      9.2718
C      6.5612      2.7401      2.8728
H      6.3884      5.3777      7.5102
H      6.7547      9.3542     11.6685
H      5.3893     -2.2809      7.8080
H      4.4069      7.9105      9.8351
C     17.3519     10.9133     17.5688
C      9.8997     -4.7900      5.1577
O     14.7351     -4.3722      4.9481
C     11.0768     -5.1847      7.1493
C      8.6170      8.2823     12.2564
C     20.2278      8.0969     13.0978
C      6.2753      7.2077     -0.8246
H      5.0342      3.9710      1.6123
H     17.0608      9.7909     14.2480
H      1.2453      0.8213      4.7203
H      8.5556     -7.4867      8.5878
C      6.8253      7.2555     10.7353
C      7.7162      6.0209      3.1966
H     21.2640      9.6251     15.2781
C     -1.0615      6.4863      4.9891
H     14.7152      8.7628     20.1843
H      4.5669      0.4815      3.2224
H      5.3287     10.5968      9.9887
H      3.9455      7.2206     -0.3672
C      9.8452     -1.6316      7.4077
C      5.6856      5.4887      9.5162
C     15.6184      7.5935     18.0455
C      4.5775      6.1535     -0.0033
C     17.2989      8.8146     14.8310
H      9.3450     -5.7288      5.4124
H      7.8202      8.4187      2.8191
H      3.4232      0.9179     10.1822
H      7.0382      0.4100     10.0881
H     17.3872     13.0596     18.1544
C     -0.1108      2.7240      8.6128
C     13.0293      8.3359     12.1217
C      1.6396      2.1050      7.1824
C     12.5350     -6.5831      1.5150
H      5.3392      7.5639     -1.1638
H     -3.6362      3.5309      4.6553
H      6.3779      4.2489      4.7711
H      5.9623     10.9122     11.5674
C      9.8257      7.6454     13.0257
O     14.7019     10.9418     12.8657
C      6.9554      8.1571      8.4015
C     15.7147      8.5763     20.1509
C      3.1356      0.9043      9.1510
C      3.2540      1.7127      4.6568
H     11.3010     -2.2833      0.7828
H     19.0435     12.0202     18.6885
C      4.0908      3.7773      3.3651
H      8.1740     -3.8623      5.6709
C     10.7907     -4.3543      0.7344
C     10.9125      6.7803     11.9967
H      9.6891     -3.6314      7.9980
C      5.4494      2.8552      5.3908
H     16.9722     11.7603     19.3558
H      8.7532      3.7150      2.0544
H      8.2893      0.5319      7.3096
C      2.5001     -1.1233      8.2237
C      5.1145     -1.5119      8.3014
C     -2.0039      5.1508      3.2489
C     16.0348      9.7940     19.5338
C      2.9604      4.0760      2.5865
C      5.1528      8.8732      9.5694
H      2.2688     -1.4022      7.2192
H     15.7358      8.2817     13.4926
H     -1.7554      4.2344      0.9406
H     15.3999     -9.4393     -0.6643
O      5.3765      7.1589      6.6291
C     13.4796     -4.9187      4.5770
H     16.3678     10.4147     20.4966
C     10.1118     -4.5792      3.5359
C     10.9797     -5.3028      2.7889
H      6.2661      8.6953      7.7182
C     10.0904     -5.7229      8.1193
H      0.9249      2.4078      5.2466
H     14.3231      7.8746     10.4467
H      6.5158      1.7441      1.9900
H      0.0953      1.8060      8.8779
C      4.0844      1.7772      0.9520
C     12.8786     -4.2207      2.0431
C     -0.0959      4.2044      3.9767
C      7.4317     -1.4815      7.3040
H      0.7995      0.2876      2.8864
H      9.1565     -6.1686      7.8032
H     14.9799     10.3177     19.3021
H     14.6595     -6.1641      0.7488
O     13.1183     -3.1405      6.4498
C      6.3513     -0.9171      8.2805
C     13.4190     -5.8582      6.7032
C     14.8623      7.8921     14.0989
C     13.6758     -5.1853      3.0682
H      9.1131      0.9651      8.5197
C      2.3670      1.5777      3.3887
C      0.3747      2.8627      7.2939
C      9.9890     -3.2304      6.9316
C     -2.6234      3.0909      4.5418
C     17.8625     12.1231     18.3487
C      2.7402      3.3537      9.8995
C     11.8269     -5.1697      1.4841
C      3.9547     -0.7213      7.9714
N      1.5880      0.4675      3.7666
H      2.1303      0.9075      0.7988
C      3.0261      1.5371     -0.0461
O     17.0705      6.3929     15.2839
C      9.1509      6.7439      1.0445
H     17.8894      9.7160     19.3022
H      1.4005      1.1435      7.7086
C     -1.9004      4.3119      2.0165
C     10.3082     -5.7255      9.4212
H      1.6076      1.5436      6.1352
H      7.5148      5.1764      0.3134
H      8.7029      7.8762      8.0772
C     10.7027     -3.0836      0.7718
H      4.4547      9.3372      8.7621
H     15.2754     -5.4591      9.1833
H     -3.2795      5.5027      5.1983
H     11.9278     -3.0686      4.6519
H     14.7304      9.3961     11.5643
H      3.4420      0.7076     -0.3845
H     -1.3978      2.7842      8.6645
C     15.1041      7.7097     15.4238
H      4.8941      5.7702     10.1132
C     14.2837      8.4479     11.4134
C      6.1423     10.9322     10.6391
H      2.7349      2.5454     10.7068
H     16.8024     11.7664     16.1687
C      4.1634      8.5484      4.5942
C      7.4369      7.3256      2.7433
C     20.6503     10.0518     14.4690
C     18.6302      8.5582     15.0500
C      4.3327      6.3053      6.4792
C      1.7331      4.7946      2.4706
C      5.9135      6.0745      0.0255
C      5.4802      7.8830      4.3690
C      7.5963      7.1301      1.2088
C      4.0965      5.2370      7.6663
C     14.4906     -8.0166      1.0322
H     -3.1746      5.3866      3.0566
C      6.1828      7.5291      5.6588
H      9.2939      5.5175      0.8292
C      7.0711      5.7897      1.0053
H     11.1402     -6.1488      9.8745
O      7.3650      7.2325      5.8326
H      8.3866      9.3581     11.9321
H      1.9853      2.2355      2.7474
H     12.2119     -3.4295      2.6700
H      3.7258      5.9281      0.5395
H      4.6076      5.4274      3.9683
C     12.2418      7.2197     11.7120
C     16.0085      6.5616     15.8406
H     14.0064     -6.4205      9.0132
C     -1.6126      4.3610      4.5111
C      0.3874      6.7213      5.2883
H      4.7900      9.3130     10.3966
H      2.6137     -0.2651      5.5443
C      1.3279      5.7431      4.8406
H      3.1681     -0.0569      1.7209
H     12.7787     -6.0269      8.6648
C      8.2063     -6.9966      9.3930
C      4.2774      0.7909      8.2893
O      6.1337      4.1421      5.6269
C      6.0885      7.7466      3.1606
C      9.1179     -3.4939      5.6861
C     12.9438     -6.5562      2.9521
C     -1.4293      6.4604      3.4944
H     16.6381      8.5173     20.8021
H     15.2211      7.8441     12.2515
H     -2.3018      2.9658      3.5066
C      1.8819     -0.0911      8.8033
C      0.7183      5.4558      3.5400
C      5.4655      3.7537      2.5247
H     14.1121     -8.6792      7.5222
H      8.3563      9.0296      9.4055
H     10.6639     -1.4978      8.1179
H     14.5242      9.9925     15.4060
H      7.4146     -2.3706      6.7219
C     15.0423     -6.4431      8.7018
C     -1.9886      5.4016      5.4215
C      3.6243      0.8536      2.2632
C      1.6870      4.4655      5.4429
C     14.6853     -6.5050      6.9984
C     15.4065     -9.0296      0.3852
H     11.9204     -7.4500      0.9563
H      5.1670      2.0320      0.6787
H      2.5433      2.0013     -0.7945
H     10.8429     -3.3978      6.2155
H      5.3309      1.1865      3.8640
C     12.4236     -4.0581      5.2192
C      9.1362     -6.0414     10.1637
H     16.9487      7.8556     14.5159
H     21.2944     10.3778     13.7152
C      8.6076     -1.1908      8.0684
H      9.6382      6.8719      2.1744
H      9.5643     -2.6279      5.2580
H      5.5903      1.4876      9.7633
C     12.3742     -5.6014      7.6643
C      0.5110      3.5788      5.1877
O      8.7010      5.6920      4.0279
C     11.2979     -5.1945      5.6678
C      6.0764      2.1649      7.6278
C      5.1465      2.0743      6.6546
C      3.0538      0.7959      5.7366
H      7.2038      7.2803      7.8966
H      5.8371      3.5123      8.1356
H      8.3137      9.8349      7.5594
H     12.8191     -3.5021      7.3666
C     14.6912     -7.9544      6.8660
C      3.8958      5.7630      4.9154
C      2.8429      2.4564      9.0053
H     20.4887     11.0741     15.0384
C      8.3947      7.2091     11.2627
H      3.9116      5.7190      8.7961
H     10.6019      5.7398     11.6681
H      7.2002      2.0599      7.5466
C      4.0264      3.0500      4.7480
C     17.2075      9.8177     18.5080
C      7.0262      0.1874      9.1073
C      8.1566      8.8908      8.2286
C      5.5625      4.8057      8.0846
C      5.8318      1.3428      8.8251
H      0.2646      3.4659      9.2570
H     18.8944     10.2787     13.4998
H      8.5163      6.2082     11.6486
C     14.6371     10.1994     13.8403
H      3.0444      4.3510      9.9130
H      9.4725     -4.1419      2.7428
