258

C     19.9697      9.0536     13.8127
C      3.8649      1.6681      7.0765
C      2.1186      2.8916      1.4560
C      7.0862      5.0280      2.4939
H     -3.1115      3.4981      3.2804
C      7.0253      3.8030      3.0768
C      3.3822      3.7092      5.5633
C     -6.3473      9.9249     10.3236
C     16.2742      7.2332     19.4312
C      5.8639      1.7669      3.6924
C     -7.2907      8.8452      9.4672
C     13.7420      8.8604     13.8715
N     -0.2973      2.4662      6.6628
C      0.3393      5.9694      0.7665
C      3.2926      3.9874      7.0176
C     15.5060      6.3454     17.5228
C     16.4898     10.4331     16.7536
H    -11.5346     13.6916      9.3708
H     -3.6990      3.6296      5.2581
H     17.5391      6.0531     15.1919
H     -6.3862     11.0696     12.2056
C     17.2490      9.1915     16.2709
H     -9.1292      8.2865     10.7411
H     -5.3396     10.3768      9.8762
H      7.5774      3.3380      4.0897
H     12.9417      7.2972     10.7855
H     -0.3713      5.0685      6.4969
C      3.0240      2.7505      7.6151
H      6.6544      1.2075      4.0703
O     15.0029     10.8248     14.8417
C     -4.7214     12.9007      8.5858
C      6.8806      5.7979      9.9689
H      2.2829      0.2635      6.3391
H      2.6056      6.2829      9.6067
C      6.0959      2.7818      2.7294
H      6.3644      4.6464      7.7185
H     -5.9079      9.0606     10.4736
H     -7.7936     11.1611      9.4010
H      4.9677      6.4429     10.1075
C     17.3220     10.9138     17.8799
C     -2.7879      8.7070      5.2318
O      1.8667      8.6574      4.7458
C     -1.6000      7.5794      7.1761
C      8.7010      8.2673     11.9176
C     20.5460      7.9019     13.0340
C      6.5462      7.2862     -0.6075
H      4.8788      4.2537      1.9663
H     17.6184     10.1090     14.4570
H      1.3174     -0.6014      3.0051
H     -5.2421      5.9211      8.0345
H     15.8134     10.4471     15.1039
C      7.1756      6.5449     11.1679
C      7.6774      5.8133      3.5352
H      8.3128      7.1618      2.1861
C     -1.0700      6.6674      5.2381
H     14.8038      8.4383     20.3545
H      3.6134      0.0893      1.6720
H     -7.0588     11.9736     11.1038
H     14.9475      7.0830     13.3380
C     -3.1537     11.4110      7.4766
C      5.4134      5.4158      9.6576
C     15.9085      7.7524     17.9398
C      4.4000      6.0236      0.7701
C     18.0877      9.4215     15.2726
H     -3.9181      8.3835      5.4753
H     -8.9452     14.0022     10.3722
H     -6.3479     12.3469      9.5336
H     16.9385     12.6383     17.1775
C     -0.0436      3.6384      8.6324
C     13.5621      8.5387     12.4240
C      1.8193      1.8019      7.9120
H     -2.1412      7.1003      9.6268
C     -0.7767      6.3935      1.5677
H      5.8681      8.2526     -1.0459
H     -2.4803      2.9120      4.1976
H     -8.0374     10.4803     11.4544
C      9.9354      7.4993     12.6783
O     13.7704     11.0942     13.1865
C     -6.7402      8.4061      8.1895
C     16.1269      8.4331     20.3507
C     -9.2371     14.3504      9.4289
C      2.7606      1.4816      4.7679
H     -2.6623     10.6240     -0.3322
H     -7.3556     11.7941      6.6343
H     -9.8053     16.4698     11.2984
C      3.7352      3.1929      3.2460
H     -3.9029     10.7174      5.4925
C     -2.3019      8.3607      0.7214
C     11.2135      7.2116     11.9629
H     -2.4458      9.5939      7.4404
C      5.1875      2.2198      4.8518
H      3.7610     -0.1722      5.7459
H     -4.6096     13.6467      7.7403
C    -10.1385     12.3058      8.6105
C     -7.8664     11.1037      8.3638
C     -2.2151      4.9209      3.8009
C     16.8280      9.5710     19.7992
C      2.2180      3.4367      2.8539
C     -8.1012      7.9709     10.1259
H     15.9620      8.3618     13.9681
H     -3.1370      4.9199      1.9479
H      1.7168      4.1823     -0.9046
O      5.9729      6.5123      6.5117
C      0.5596      8.1554      4.6210
H     -8.4750     10.3831      7.7802
C     -2.2176      8.6750      3.7915
C     -2.1501      7.5803      3.0685
H     -7.5317      8.7030      7.2928
C     -2.9044      7.5261      7.6577
H      2.3248      3.9992      5.2586
H     14.0975      8.3835     10.9427
H      6.4267      2.2559      1.7845
H     -0.1981      4.7635      8.5460
C      3.1182      1.8949      1.0095
C     -0.1719      8.4350      2.0559
C     -0.2368      3.7998      4.3529
C     -5.3724     10.7808      7.1646
H     -3.5197      7.5754      6.9230
H     16.2792     10.3515     19.2855
H      0.2928      5.7851     -0.2868
O      0.0345      9.7163      6.1371
C     -6.6645     11.4821      7.4368
C      0.6946      6.9698      6.9371
C     15.1410      7.7367     14.2792
H     15.3702      8.3305     15.8987
C      0.4898      7.5392      3.1307
H     -4.2463     13.3538      9.5091
C      2.7861      0.5553      3.5776
C      0.4114      2.3982      7.8767
C     -2.4308     10.4863      6.7842
C     -2.5531      3.2149      5.2027
C     17.8170     12.1446     17.6131
C     -9.7022     16.8140     10.2567
C     -1.4471      7.7445      1.7192
C     -8.8649     12.3024      8.1296
N      1.9033     -0.4538      3.7941
H      4.1563      1.7090     -0.6835
C      3.1157      1.5702     -0.4603
O     16.9339      6.6747     15.6490
C      9.3458      6.2761      0.2222
H     19.0957      9.4693     18.4319
H     -0.0772      1.6274      8.5849
C     -2.8362      4.2900      2.7645
C     -3.0704      7.1482      8.9454
H      1.5686      1.4677      6.9305
H      7.0694      5.0564      0.0763
H     -5.6845      8.6467      6.7571
C     -2.4712      9.6233      0.3717
H      5.1557      4.5291     10.3195
H     -1.0966      9.3155      4.4439
H     15.6228     10.0357     11.8434
H      2.1490      2.2013     -0.8122
H      0.0971      3.6606      9.6484
C     14.7938      7.4863     15.5524
C     14.7912      9.0593     11.8343
C     -7.0452     10.8179     11.3889
H     15.2203     10.6141     16.9834
C      4.5194      8.2754      4.5673
C      7.8844      7.1620      3.3144
C     21.1978      9.5723     14.3144
C     19.0314      8.5138     14.9246
C      4.1668      6.0975      6.4220
C      1.6332      4.8797      2.8177
C      5.7175      6.4882      0.5617
C      5.6852      7.3866      4.2655
C      8.1238      6.7076      0.9667
C      4.1019      5.1590      7.7057
C      1.3171      5.2258      1.4007
H     -2.0956      5.5909      6.5075
C      6.5191      6.9618      5.4602
H      9.2318      5.3424     -0.3725
C      7.0527      5.6588      0.9110
H     -0.5070      3.0492      3.5628
O      7.6832      7.5294      5.5287
H      8.5895      9.4724     12.3114
H      2.1381      3.0426      3.7210
H     -0.4690      9.1521      2.7082
H      3.0529      4.6293      0.2122
H      5.0783      5.3860      4.7614
C     12.6970      7.5444     11.9065
C     15.5360      6.2267     16.0367
H      1.2825      6.6959      9.6386
C     -1.4300      4.3433      5.0010
C      0.5093      6.8903      5.3380
H     16.4176      8.1657     21.6655
H      1.7290      1.9255      5.3752
C      1.2812      5.5781      5.1133
H      2.0706      0.0839      1.6653
H     16.2976     11.1997     16.0912
H     -0.2285      7.1384      9.0301
C     -5.0664      6.1390      9.1374
C     -8.3582     13.9209      8.3134
C      6.4084      7.7110      3.0489
C     -2.9884     10.1806      5.3715
C     -0.2781      6.2634      3.2211
C     -1.6563      6.3191      3.9930
H      3.9147      6.7306      0.3499
H     -2.5069      2.4220      6.1440
C    -10.5393     13.7825      8.8706
C      0.4635      5.1035      3.9602
C      4.7018      3.3363      2.4797
H      1.6807      4.8819      8.3532
H     -6.9413      7.3346      8.0966
H     -2.4626     11.7627      8.1970
H     -5.3284     10.4514      5.9469
C      2.0096      6.8685      8.9495
C     -1.1662      5.3910      5.8901
C      2.8102      0.7094      1.9609
C      1.0856      4.5370      6.1455
C      2.0676      6.5367      7.2549
C      2.0701      4.2934      0.2809
H     -1.5866      5.5898      0.9150
H      4.3256      2.0530      0.9887
H      2.5086      0.5391     -0.5770
H     -1.4065     11.0607      6.3556
H      4.7099      1.1381      3.2453
C     -0.5263      8.9949      5.2838
C     -4.2401      7.1907      9.5961
H      4.0011      5.0929      1.2766
H     20.8262     10.2255     14.9104
C     -4.4176     11.5584      7.7766
H     10.0069      6.1008      1.0812
H     -2.0699     10.5810      4.9665
H     -6.8484     14.9653      9.2984
C     -0.3093      7.3976      7.7914
C      0.4024      3.3658      5.7006
O      8.7861      5.5182      4.6212
C     -1.5202      7.9556      5.8205
C     -6.5937     14.4621      6.9603
C      5.4627      1.9293      6.1293
C      3.1730      0.7080      6.0654
H      8.5664      6.2893      5.5359
H     -5.3471     14.7708      7.1904
H      5.3312      3.7501      8.6888
H     -4.7271      8.9663      8.3199
H      0.8132      9.3278      6.4776
H     18.5245     12.4626     18.2875
H    -10.6922     11.4139      8.4795
C      1.9064      4.8706      7.2414
C      4.0104      5.2504      5.1729
C     -9.5911     15.9943      9.2123
H     21.4530      8.5883     14.5524
C      8.1794      7.5684     10.8660
H      3.4570      5.5721      8.4288
H     11.0706      6.3662     11.0842
C      3.7606      2.6098      4.6471
C     17.9087      9.6157     18.6781
C     -6.1801     12.8703      8.4780
C     -5.4403      9.2545      7.6926
C      5.3668      4.7507      8.2497
C     -6.8876     14.1277      8.4233
H     -1.1087      3.4827      8.6933
H     19.4290      9.5358     13.0318
H      7.9684      5.9287     11.5774
H     -1.1953      2.7664      6.7757
C     14.3152     10.2003     13.9964
H    -10.4487     17.4644     10.5776
H     -2.6857      9.3911      3.0030
