263

C     19.7855      9.0676     14.0958
C      3.9986      1.8045      6.7535
C      2.2706      2.8944      1.2702
C      7.3734      4.8537      2.2485
H     -3.3382      3.7347      2.4740
C      7.2332      3.5611      2.7316
C      3.1325      4.0670      5.4507
C      6.7781     -3.2522     10.6156
C     16.0712      7.3665     19.3667
C      6.0359      1.8940      3.8189
C      6.3132     -4.2255      9.5481
C     13.8288      8.7080     13.9016
N     -0.3189      2.9438      6.6310
C     13.5358     -6.9998      0.6026
C      3.2608      4.1546      7.0527
C     15.5994      6.3348     17.4280
C     16.7172     10.7858     16.7565
H      1.8974      0.8115     10.1839
H     -3.7409      3.5946      4.9899
H     16.8325      7.5060     15.5951
H      6.3659     -1.4348     10.5597
C     16.9307      9.3218     16.2992
H      7.3804     -2.6642      9.8053
H      7.7979      3.2060      3.6080
H     12.2853      8.0640     10.6171
H     -1.7780      5.0820      6.7429
C      3.0884      2.7161      7.4641
H     10.7121     -3.0765     -0.3845
H      6.8579      1.4022      4.2363
O     14.6534     10.3359     15.2404
C      8.1904     -0.1532      8.7216
C      6.8824      6.1440      9.8824
C      6.0781      2.6806      2.4295
H      6.2668      6.0120      7.1625
H      7.1532     -3.7703     11.6523
H      5.0119     -2.8964      8.4981
H      4.5391     -5.7990      9.7650
C     17.5818     10.8094     17.8152
C     10.0878     -3.9201      4.7345
O     14.8396     -4.5426      5.0765
C     11.1718     -5.2489      6.9332
C      8.6676      8.3020     12.0176
C     20.3399      7.9015     13.1095
C      6.3382      7.2032     -0.6892
H      5.0239      4.3976      1.7725
H     17.6029     10.2660     14.5874
H      2.0011     -0.4164      2.7061
H      7.8855     -6.0216      7.7467
C      7.1854      6.6872     11.0784
C      7.9875      5.8656      2.9969
H     21.6921      9.4904     15.3915
C     -1.4534      6.6055      5.1295
H     15.0738      8.8034     20.4551
H      4.2929      0.2770      2.2442
H      5.0650     -2.3675     10.1937
H     15.0139      7.1054     13.3682
C      9.7305     -0.9652      7.2566
C      5.8000      5.6417      9.1082
C     15.8620      7.6811     17.8216
C      4.6620      6.3782      0.7738
C     17.7061      9.2647     15.1580
H      8.9134     -4.1796      4.6554
H      8.3926      8.0871      2.5624
H      3.5550      0.9724     10.3209
H      6.3304     -0.8548      9.3119
H     17.9579     12.6048     16.8608
C      0.4109      3.9510      9.0698
C     13.6064      8.3470     12.3387
C      1.6458      1.9943      7.9553
C     12.5592     -6.4646      1.5917
H     -3.1105      2.5990      3.7518
H      6.8035      4.1562      4.5603
H      5.2159     -2.0343     11.7811
C     10.0406      7.7420     12.7879
O     14.2049     11.1919     13.2942
C      6.4145     -4.0498      8.0001
C     16.0900      8.5295     20.0843
C      3.3887      1.3422      9.2912
C      3.3445      1.6119      4.5977
H     11.8140     -2.6990      1.1660
H      5.9577     -0.7416      6.6160
C      3.8520      3.3967      3.1671
H      9.4790     -3.5588      6.4368
C     10.8814     -4.4348      0.7733
C     11.0679      7.3372     11.8018
H     11.5310     -2.2397      6.9017
C      5.4179      2.9268      4.8911
H     18.6507     12.8291     18.2374
H      8.8180      0.7231      8.3326
C      2.4444     -0.7138      8.8359
C      4.9933     -1.8240      8.1250
C     -2.2750      5.2348      3.4520
C     16.3710      9.7919     19.3865
C      2.4449      3.6667      2.7879
C      4.7967     -4.5426      9.9424
H      2.2478     -1.0175      9.8734
H     15.8193      8.4723     13.8014
H     -2.4831      5.3214      1.6225
H     15.0449     -9.3594     -0.4259
O      5.2538      7.0569      6.2175
C     13.5140     -5.0402      4.5405
H     16.9472     10.2827     19.9646
C     10.4414     -4.0849      3.4026
C     10.9134     -5.2727      2.9313
H      5.5197     -4.3961      7.4081
C     10.0642     -5.2653      7.6817
H      0.9310      2.2296      5.3647
H     14.3850      8.1498     10.4651
H      6.3974      2.0870      1.5546
H      1.4250      3.9561      9.5014
C      3.4411      2.0538      0.9355
C     12.7835     -4.3855      2.2083
C     -0.2497      3.9724      4.4297
C      7.4956     -1.9909      7.1411
H      1.8690      0.0504      4.6794
H      9.1711     -5.5000      6.8926
H     15.4360     10.3155     18.6877
H     13.1152     -6.5478     -0.5305
O     13.0505     -3.5337      6.2502
C      6.1029     -1.3190      7.5117
C     13.3265     -6.1938      6.7438
C     14.9680      7.9633     14.3245
C     13.6268     -5.3501      3.1620
H      8.4173     -0.1563      9.8953
C      2.9089      0.9634      3.3308
C      0.2932      2.7482      8.1365
C     10.7570     -1.7916      6.4228
C     -2.8701      3.0903      4.7956
C     18.4575     11.9445     17.6162
C      2.9828      3.8201      9.7850
C     11.8272     -5.0350      1.6794
C      3.9396     -0.8729      8.2787
N      2.1819      0.0123      3.6788
H      3.6885      1.9035     -1.1609
C      3.3161      1.0989     -0.4354
O     17.1581      6.6124     15.9035
C      9.5012      6.6248      0.8874
H     18.4169      9.3832     19.1590
H     -0.4411      1.9092      8.3916
C     -2.8067      4.6604      2.4180
C      9.9534     -4.9270      8.9504
H      1.6774      1.3847      6.9088
H      7.3232      4.3804      0.1401
H      7.4844     -3.7492      6.2330
C     11.1455     -3.1533      0.5280
H      4.5362     -4.0249      9.1838
H     14.8594     -5.1480      8.9072
H     12.3507     -3.4248      4.0869
H     15.4203      9.1411     11.1891
H      2.2143      1.0556     -0.3872
H     -0.0263      3.9506     10.0491
C     14.9357      7.5397     15.6224
H      4.7909      5.2978      9.5019
C     14.7247      8.3123     11.5365
C      5.7794     -2.1605     10.8805
H      3.2722      3.2763     10.9176
H     15.4837     10.7890     16.9701
C      4.3067      8.4391      4.4596
C      7.6365      7.1757      2.6080
C     21.0541      9.6682     14.5607
C     18.6960      8.4189     14.7644
C      4.0278      6.1501      6.2873
C      1.8409      5.1210      2.5449
C      5.9841      6.2033      0.3601
C      5.6593      7.4636      4.1751
C      8.0769      6.7159      0.8399
C      4.3189      5.1264      7.3408
C     14.4595     -7.8380      0.9706
H     -3.0381      5.9839      5.8058
C      6.4063      6.8859      5.2893
H      9.5785      5.7170      0.1001
C      7.0706      5.4202      0.8880
H     -0.4110      3.1281      3.4908
H     10.9423     -4.8904      9.4319
O      7.4109      6.6584      5.9375
H      8.8344      9.1810     11.5200
H      1.7168      3.2420      3.4920
H     12.3596     -3.3022      2.4686
H     16.3863     -8.4521      0.0739
H      4.7166      5.5947      4.5100
C     12.4105      7.7718     11.7038
C     15.5985      6.2716     16.0507
H     14.3082     -6.8514      9.4371
C     -1.8997      4.3205      4.7360
C      0.2695      6.7696      5.2322
H      4.7101     -4.1035     11.0134
H      3.0073     -0.0275      5.8933
C      1.2369      5.6608      4.8570
H      3.0779      0.0876      1.3049
H     16.9695     11.4306     15.9499
H     12.3990     -6.4633      8.4562
C      8.0251     -6.3617      8.8366
C      4.1639      0.7668      8.1604
O      5.9294      4.1499      4.8538
C      6.3000      7.4029      2.7805
C      9.9573     -2.7096      5.6782
C     12.7643     -6.6888      3.0076
C     -1.5429      6.5175      3.6489
H     16.0621      8.3833     21.0717
H      3.9890      7.4420      0.3491
H     -2.5582      2.4852      5.6791
C      1.9820      0.8170      8.9375
C      0.6319      5.0308      3.5955
C      4.8887      3.3387      2.2770
H     14.2256     -8.5661      7.7619
H      7.2060     -5.0009      9.9618
H      7.8877      4.8221      4.4664
H      9.9549     -0.0510      7.5845
H      7.8863     -1.8271      6.1949
C     14.9857     -6.3756      8.8844
C     -2.1216      5.4682      5.7624
C      3.4688      0.8537      1.9244
C      1.5913      4.2981      5.6852
C     14.7591     -6.5091      7.1019
C     15.3918     -8.7850      0.2289
H     11.8489     -7.1597      0.9138
H      4.1752      2.8951      1.2667
H      3.7875      0.2553     -0.2924
H     11.5411     -1.0397      5.8172
H      5.1040      1.1568      3.9375
C     12.6322     -4.0447      5.1055
C      8.9034     -5.6566      9.6947
H      4.0524      5.5092      1.2146
H     21.8189      9.6592     13.5851
C      8.6366     -1.4348      7.8414
H      9.9146      7.1522      1.7403
H      8.9190     -2.1472      5.3517
H      5.5320      1.9239      9.3644
C     12.2938     -6.1559      7.4815
C      0.4781      3.2250      5.5655
O      8.6301      5.4231      4.2228
C     11.1360     -4.9565      5.5698
C      6.1619      1.9369      7.3979
C      5.2991      2.3049      6.3450
C      3.5774      0.8290      5.5878
H      6.7996     -5.1228      7.9749
H      6.4981      4.3162      7.1329
H      8.3136     -3.4508      7.6903
H     12.8673     -4.3129      7.1934
H     19.3910     11.8454     17.3756
H      1.3767     -1.2887      8.6124
C     14.8046     -8.2364      7.1026
C      3.7021      5.4808      5.0105
C      3.3101      2.7699      9.0532
H     20.9707     10.7832     14.5996
C      8.4319      7.1724     11.0931
H      3.7445      5.7805      8.0445
H     10.7908      7.4206     10.8967
H      7.1983      1.8621      7.2388
C      3.7940      3.0936      4.5985
C     17.4071      9.5642     18.4465
C      6.6899     -0.1175      8.6425
C      7.5087     -3.3767      7.1960
C      5.7587      5.1317      7.6614
C      5.6946      1.0701      8.4812
H     -0.1758      4.9136      8.6871
H      9.8337     -3.8879      8.9590
H     19.3895      9.9049     13.4791
H      8.7657      6.2485     11.2838
H     -1.1609      3.5821      6.8660
C     14.0094     10.2673     14.2060
H      3.2471      4.8124     10.0735
H     10.7637     -3.2964      2.7816
263

C     19.7776      9.0763     14.0399
C      3.9263      1.6499      6.8769
C      2.2805      2.9310      1.3823
C      7.4292      4.7994      2.2550
H     -3.3313      3.8207      2.5390
C      7.2791      3.5260      2.7497
C      3.2327      4.0478      5.4494
C      6.8753     -3.2807     10.5520
C     15.9590      7.2874     19.4270
C      6.0646      1.8477      3.8634
C      6.3542     -4.2908      9.6518
C     13.7914      8.6612     13.7500
N     -0.3311      2.8963      6.6356
C     13.5829     -6.9833      0.5455
C      3.3234      4.1843      6.9472
C     15.4746      6.3331     17.5351
C     16.6939     10.7316     16.5678
H      1.3884      0.9417      9.9791
H     -3.7160      3.5632      5.0989
H     17.3241      7.5384     15.8018
H      6.0365     -1.1744     10.4800
C     17.0116      9.4006     16.2435
H      7.7521     -2.9058     10.3406
H      8.2007      3.0388      3.1645
H     12.6377      7.5046     10.7657
H     -1.7524      5.1963      6.6156
C      3.0485      2.7322      7.5730
H     10.9180     -3.2593     -0.5172
H      6.9658      1.4454      4.4251
O     14.7070     10.3001     15.1278
C      8.1395     -0.1638      8.6619
C      6.7375      6.3187      9.7335
H     16.1838     -6.3678      9.4031
C      6.1054      2.4993      2.5521
H      6.0928      5.9646      7.1696
H      7.0142     -3.5268     11.5768
H      5.3546     -2.6133      8.4006
H      4.7421     -5.5817     10.1692
C     17.6774     10.8391     17.7039
C     10.2210     -3.8930      4.8022
O     14.7300     -4.5165      5.1649
C     11.2410     -5.1831      7.0241
C      8.6114      8.1949     12.1232
C     20.2129      8.0440     13.1059
C      6.3400      7.2193     -0.6598
H      4.9905      4.5086      1.9673
H     17.5095     10.0012     14.4195
H      1.4204     -0.4507      2.9687
H      7.9748     -5.8327      7.9749
C      6.9541      6.5502     11.1168
C      8.1034      5.7478      2.9890
H     21.7536      9.4653     15.5701
C     -1.2820      6.5770      5.1077
H     14.8459      8.6297     20.1157
H      4.5071      0.2576      2.0854
H      4.9055     -2.6705     10.2889
H     15.5541      7.1892     13.8605
C      9.7289     -1.0109      7.2609
C      5.7594      5.5419      9.1417
C     15.8736      7.6772     18.0229
C      4.6567      6.6296      0.8246
C     17.6056      9.1737     15.0785
H      9.0815     -4.4201      5.1171
H      8.5567      7.8781      2.8416
H      3.7561      1.0978     10.4269
H      6.3616     -0.9602      9.1787
H     18.2675     12.2482     16.6669
C      0.3683      3.9875      9.2288
C     13.6464      8.3408     12.2814
C      1.7707      1.9482      7.9320
C     12.4407     -6.6702      1.5492
H      5.5736      7.9412     -1.0741
H     -2.9622      2.7596      3.6575
H      6.5981      3.6136      4.7027
H      5.5796     -1.7175     11.9304
C     10.0261      7.6332     12.9264
O     14.1527     11.1898     13.2858
C      6.3872     -4.2345      8.0805
C     15.9629      8.5557     20.2755
C      3.4716      1.2956      9.3435
C      3.2027      1.6803      4.5166
H     11.3895     -2.3579      1.5436
H      5.6200     -1.0023      6.5972
C      3.9643      3.4794      3.0709
H     10.2424     -3.0706      6.7637
C     10.9166     -4.2850      0.7434
C     11.0068      7.3579     11.6891
H     11.2528     -2.2637      7.2526
C      5.4029      2.8388      4.8831
H     18.3894     12.9922     18.6089
H      8.7895      0.7157      8.3879
C      2.4809     -0.6976      8.7429
C      4.7743     -1.7162      8.0584
C     -2.4259      5.1853      3.4686
C     16.2537      9.9125     19.3970
C      2.6012      3.6667      2.6709
C      4.8173     -4.5347      9.9894
H      2.3331     -1.1881      9.6429
H     16.0710      8.7236     14.1871
H     -2.5524      4.9479      1.3176
H     14.9793     -8.9155     -0.7739
O      5.3111      7.0289      6.2032
C     13.6294     -4.9423      4.5097
H     16.7026     10.8495     20.0050
C     10.5511     -3.9703      3.2997
C     10.7256     -5.2275      2.9157
H      5.2709     -4.1530      7.6776
C     10.0338     -5.3844      7.6246
H      1.2869      2.3576      5.1619
H     14.8167      7.7832     10.3269
H      6.2247      1.8381      1.5728
H      1.5107      3.8519      9.3116
C      3.4195      2.0176      0.8817
C     13.0238     -4.3053      2.1696
C     -0.1874      3.9705      4.3451
C      7.2322     -2.0214      7.1250
H      1.7292      0.1354      4.4261
H     15.3278     10.1447     18.9120
H     13.5152     -6.4727     -0.3671
O     13.0893     -3.4829      6.0917
C      6.1192     -1.2010      7.5141
C     13.3918     -6.1057      6.7683
C     15.0265      8.0493     14.1838
C     13.5397     -5.3434      3.1686
H      8.4741     -0.2969      9.6208
C      3.0649      1.0648      3.3542
C      0.2671      2.7850      8.0022
C     10.7709     -1.6417      6.4278
C     -2.7696      3.0779      4.6266
C     18.4737     12.0552     17.8565
C      2.8821      3.9705      9.7806
C     11.7284     -5.1818      1.7101
C      3.8322     -0.7741      8.3510
N      2.2139      0.0472      3.5850
H      3.7423      1.6976     -1.2968
C      3.3946      1.1553     -0.5064
O     17.2529      6.5165     15.8429
C      9.6251      6.6008      0.7604
H     18.0788      9.7353     19.6341
H     -0.4104      2.0071      8.8506
C     -2.7947      4.6862      2.2764
C      9.9174     -4.9779      9.0462
H      1.6617      1.2837      6.9697
H      7.3495      4.7338      0.1621
H      7.2625     -3.7012      6.0593
C     11.3633     -3.1310      0.5580
H      4.3849     -3.7479      9.3326
H     14.7777     -5.1908      9.1331
H     12.1895     -3.1326      4.4820
H     15.4604      8.9778     11.5718
H      2.3347      1.0744     -0.7633
H     -0.4810      4.1515      9.8380
C     15.0585      7.7239     15.6894
H      4.6852      5.7219      9.6000
C     14.6269      8.2788     11.3825
C      5.7709     -2.2670     10.7111
H      3.1377      4.0693     11.0121
H     15.7304     10.9962     16.9359
C      4.3912      8.5143      4.4480
C      7.6374      7.1146      2.5121
C     21.0600      9.6943     14.5591
C     18.7469      8.3218     14.8411
C      4.1307      6.2866      6.3026
C      1.9131      5.0040      2.4613
C      5.9039      6.3296      0.4089
C      5.6886      7.5154      4.1533
C      8.0048      6.8427      0.9639
C      4.2739      5.1928      7.4328
C     14.6051     -7.8168      0.9159
H     -3.0234      5.5303      5.6321
C      6.3690      6.9017      5.4450
H      9.9398      5.7158      0.3266
C      7.0824      5.4213      0.8869
H     -0.1822      3.2600      3.7274
H     11.1169     -5.1406      9.4548
O      7.4053      6.5134      6.0043
H      8.9867      9.0543     11.3159
H      1.9808      2.9764      3.4146
H     12.9831     -3.2535      2.6245
H     16.0683     -8.0576     -0.0954
H      4.7722      5.3775      4.6418
C     12.2708      7.6490     11.7142
C     15.7979      6.1940     15.9635
H     14.2537     -6.8227      9.4424
C     -1.8451      4.4214      4.6503
C      0.0952      6.6066      5.5044
H      4.4085     -3.9373     10.8917
H      3.0854     -0.0572      6.0736
C      1.2673      5.6641      4.8708
H      2.6998      0.0845      1.7186
H     16.8581     11.6022     15.8864
H     12.2195     -6.5702      8.7500
C      7.8677     -6.4875      8.8565
C      4.3660      0.7102      8.2022
O      5.9797      4.4218      4.8392
C      6.1626      7.5742      2.9345
C      9.9636     -2.7235      5.8440
C     12.5814     -6.7497      3.0288
C     -1.6610      6.5027      3.6654
H     16.5543      8.1047     21.1578
H      4.4066      7.3774      0.1030
H     -2.3969      2.2994      5.3769
C      2.1680      0.8133      9.0645
C      0.5330      5.1162      3.5906
C      4.9486      3.5403      2.2570
H     14.1416     -8.4477      7.9940
H      7.5485     -4.9944      9.5072
H      7.6450      5.0356      4.7758
H     10.3473      0.0543      7.8550
H      7.3400     -1.8264      6.1860
C     15.1380     -6.4157      8.8311
C     -2.0691      5.4960      5.6024
C      3.4845      0.8748      2.0196
C      1.7180      4.3952      5.5465
C     14.7433     -6.4732      7.1796
C     15.3528     -8.7910      0.2289
H     11.4742     -7.1368      1.3852
H      4.4382      2.5512      0.9990
H      3.3733      0.1358     -0.6468
H     11.7473     -1.2253      6.0964
H      5.1143      1.2069      3.8183
C     12.4589     -4.1560      5.0839
C      8.7967     -5.7054      9.5773
H      4.0251      6.1256      1.2169
H     21.8211      9.2728     13.9354
C      8.5621     -1.4267      8.0013
H     10.3778      6.9709      1.5327
H      8.8121     -2.5643      5.7270
H      6.3045      1.2459      9.4231
C     12.2305     -6.0790      7.5497
C      0.5133      3.2106      5.5590
O      8.3714      5.3986      4.3254
C     11.2707     -4.9023      5.4494
C      6.2157      1.8043      7.2502
C      5.2645      2.2343      6.3955
C      3.5148      0.8154      5.6422
H      7.0432     -5.1511      8.3428
H      6.6344      4.3858      7.3414
H      8.6431     -3.7659      7.2961
H     12.7371     -3.9101      6.9670
H      1.7762     -0.9999      8.0919
C     14.7710     -8.2420      7.0463
C      3.6618      5.3187      5.0812
C      3.1993      2.6701      9.0610
H     20.6042     10.7168     13.8935
C      8.4280      7.0983     11.1046
H      3.8221      5.7299      8.3352
H     10.8577      6.8578     10.7324
H      7.2870      1.8693      6.8641
C      3.9660      2.9059      4.3932
C     17.5321      9.6231     18.5492
C      6.6254     -0.2227      8.5139
C      7.4101     -3.5442      7.2036
C      5.6516      5.0234      7.6697
C      5.8529      1.0010      8.4218
H     -0.2604      4.7057      8.4798
H      9.6630     -3.8225      9.0982
H     19.4714      9.7640     13.2264
H      9.1586      6.2784     11.4083
H     -1.2305      3.5057      6.7012
C     14.0361     10.2014     14.0901
H      3.3208      4.9633      9.3873
H     10.6734     -3.2942      2.5137
