263

C     19.9240      8.7866     13.8527
N     -1.7219     10.4121      1.7165
C      3.8880      1.4619      6.9392
C      1.9397      3.0098      1.3355
C      6.8763      4.9103      2.5417
H     -3.7803      4.7506      3.4729
C      7.1377      3.6931      2.9500
C      3.2641      3.9568      5.4125
C     16.1650      7.1505     19.6422
C      6.0419      1.6452      3.9769
C     -7.3535      8.7531      9.2989
C     13.8873      8.7609     13.7290
N     -0.2066      2.7026      6.2937
C      0.3327      5.6055      0.6520
O     -1.7346      2.1783      1.6350
C      3.1867      4.1061      7.0624
C     15.8104      6.1489     17.4362
C     16.7690     10.4793     16.6817
H    -11.8356     13.7794      9.4137
H     -4.0085      3.5869      5.3481
H     17.0339      6.0603     14.6349
C     16.9966      9.1928     16.0791
H     -8.3349      7.6563     10.9015
H     -6.6171      9.6302      9.9209
H      8.2871      3.4821      3.3410
H     12.7788      6.7290     10.9732
H     -0.8972      4.7513      7.0179
C      3.0813      2.7362      7.6910
H      6.9885      1.5321      4.5849
O     14.7730     10.6628     15.1317
C     -5.0249     12.6973      8.4502
C      6.9823      5.9036      9.9298
H      2.5369     -0.3253      6.0709
H      1.5831      7.7166      8.8560
C      6.1550      2.6901      2.7911
H      6.2868      5.1031      7.1999
H     -8.4055     11.6751      9.9132
H     -8.2042      6.7217      9.4912
C     17.7868     11.0358     17.7074
C     -2.9803      8.2181      5.2006
O      2.0453      8.7963      5.1026
C     -1.3573      7.7409      7.1110
C      8.7341      8.2551     12.0998
C     20.6087      7.7796     12.9353
C      6.6267      7.2276     -0.8951
H      4.5305      4.1696      1.7210
H     17.6917      9.8853     14.0419
H      2.5211     -0.9926      3.0663
H     -5.0919      6.2824      8.1871
H     14.1343     11.1104     15.5308
C      7.4065      6.6091     11.0490
C      7.5555      5.9462      3.3589
H      8.3821      6.8169      2.0474
C     -0.6861      6.4747      5.2464
H     15.9981      8.1935     21.3505
H      2.5718     -0.4656      1.6914
H     15.0123      6.8240     13.4388
C     -3.4028     11.6476      7.0165
C      6.0227      5.0798      9.3551
C     16.0265      7.4508     18.0771
C      4.6924      5.9096      0.0640
C     17.7174      9.2017     14.9032
H     -3.4010      7.1931      5.1849
H     -9.7412     14.1219     10.4903
H     -6.6037     12.7837     10.0443
H     18.4215     12.2694     16.2235
C     -0.2789      3.4637      8.7758
C     13.8633      8.2548     12.4169
C      1.5641      1.9333      7.5962
H     -2.1489      7.9753      9.7698
C     -0.6350      6.1970      1.5285
H      5.7071      7.9203     -1.3809
H     -2.6935      2.8816      4.2917
C     10.1942      7.6931     12.6692
O     14.7853     10.9557     13.0083
C     -6.1234      8.2286      8.2185
C     16.8486      8.3413     20.4119
C     -9.6615     14.2588      9.3634
C      2.7705      1.6033      4.8900
H     -1.7219     11.4037      1.5907
H     -3.0047     10.0772     -0.0744
H     -7.1767     12.0830      6.8672
H     -9.5073     17.3322     10.5985
C      3.8145      3.2062      3.3176
H     -4.7177      9.3330      5.7970
C     -1.8991      8.5229      0.6544
C     11.1751      7.1464     11.8120
H     -2.2068      9.6316      7.4244
C      5.1900      2.2800      4.9749
H     -4.4457     13.5163      8.4931
C    -10.5816     12.4425      8.2372
C     -8.2996     11.2431      8.6943
C     -2.0890      5.2517      3.9551
C     16.7981      9.7036     19.5038
C      2.4389      3.6501      2.7546
C     -8.0206      7.6757      9.9651
H     16.3160      7.4802     14.0414
H     -2.7965      4.0965      2.1752
H      2.9458      5.3652     -0.0114
O      5.4876      6.7731      6.6399
C      0.6927      8.2835      4.5095
H     -8.7637     10.2228      8.2797
C     -2.7953      8.2832      3.6020
C     -1.9764      7.5280      2.8799
H     -6.2057      8.2664      7.1237
C     -2.6798      7.7051      7.6723
H      2.3132      3.6596      5.1125
H     13.7027      8.7297     10.4395
H      6.6934      2.1453      1.7644
H      0.0993      3.0591      9.7595
C      3.1884      1.9997      1.0825
C      0.1326      8.4497      2.0359
C     -0.7061      2.8892      1.7278
C      0.0291      3.7596      4.0424
C     -5.6808     10.6410      7.5995
H     -3.5385      7.9714      7.1501
H     16.4161     10.7206     19.9251
H      0.2028      5.4056     -0.4567
O     -0.2393     10.0937      5.7912
C     -6.9781     11.6053      7.9816
C      0.8178      7.1764      6.8171
C     15.3047      7.8153     14.0811
H     15.7344      8.3681     15.6400
C      0.7547      7.6711      3.1459
H     -4.7059     12.0079      9.5071
C      2.9241      0.6599      3.7358
C      0.1166      2.5695      7.5872
C     -2.7118     10.3705      6.6214
C     -2.9905      3.6229      5.3801
C     18.5964     12.0690     17.2934
C    -10.0691     16.9198      9.8535
C      0.5991      2.7461      0.9802
C     -1.1788      7.7693      1.6460
C     -9.1454     12.3274      8.3459
N      2.6388     -0.5786      3.9644
H      4.2398      2.1825     -0.8989
C      3.3551      1.6429     -0.4539
O     17.2131      6.0900     15.5920
C      9.4779      6.4694      0.2910
H     18.5476      9.3920     18.2187
H     -0.2539      1.5412      8.1110
C     -2.9936      4.8943      2.8414
C     -2.7878      7.4444      9.0836
H      1.5218      1.4226      6.5876
H      7.2516      4.7025      0.2007
H     -4.1200      8.7782      8.1626
C     -2.0286      9.7768      0.6014
H      4.9631      5.2834      9.8765
H      1.1572      6.5413      9.4291
H     -1.0340      9.7661      3.9912
H     13.7048      9.9639     11.0092
H      2.2314      2.1209     -0.8459
H     -1.3244      3.2719      8.5270
C     15.1646      7.5061     15.5780
H     -1.4378     10.1459      2.6506
C     13.9393      9.0616     11.4096
H     15.8546     10.1969     17.1519
C      4.3018      8.2875      4.3768
C      7.7291      7.2107      3.2065
C     21.1568      9.1072     14.5245
C     18.8430      8.2867     14.8424
C      4.3488      6.1135      6.3156
C      1.9198      5.1148      2.5146
C      5.9467      6.2183      0.0420
C      5.3138      7.4078      4.2364
C      8.2152      6.6528      0.8576
C      4.3275      5.0713      7.5621
C      1.4740      5.2105      0.9283
H     -1.9904      5.7129      6.9345
C      6.0975      7.2130      5.5407
H     10.2937      5.7704      0.5881
H      0.7611      1.4372      0.6179
C      7.1222      5.6442      0.9149
H     -0.9683      3.3037      4.1538
O      7.2597      7.4804      5.5555
H      8.7368      9.1504     11.8869
H     21.4959     10.2023     14.0577
H      1.6052      3.4608      3.5308
H     -0.0283      9.3793      2.6095
H      3.4460      3.6633      0.2758
H      4.5546      4.9640      4.2621
C     12.6097      7.3181     11.8442
C     15.8940      6.2791     16.0330
H      3.0544      6.4120      8.9872
C     -2.2044      4.8372      5.2247
C      0.7021      6.7453      5.3923
H     17.6082      7.7882     20.9861
H      1.7442      1.7590      4.8915
C      1.3884      5.7015      4.7984
H    -11.5282     11.8162      8.5650
H      1.8135      0.9075      1.9124
H     16.7168     10.9907     15.8153
H     -0.2996      7.4718      9.0336
C     -4.7328      5.9805      9.1618
C     -8.5878     13.5654      8.3277
C      6.2926      7.7392      3.1920
C     -3.6846      9.3379      5.7402
C     -0.0287      6.2458      2.9155
C     -1.1573      6.4742      3.7673
H      4.1055      6.5859     -0.9192
H     -2.6430      3.1877      6.2206
C    -11.0879     13.7892      8.6624
C      0.7059      5.0823      3.5713
C      4.8357      3.2749      2.3825
H      1.3280      5.0755      7.9126
H     -5.9284      7.2113      8.5643
H     -2.9283     12.5437      7.6244
H     -5.9873      9.9822      6.8245
C      1.9813      6.8068      8.9235
C     -1.2634      5.4002      6.0577
C      2.7843      0.7719      2.1336
C      1.3071      4.5507      5.7146
C      2.0912      6.6081      7.3037
C      2.4064      4.3704      0.0986
H     -1.4529      5.3749      1.4287
H      4.3067      2.4911      1.4829
H      3.2014      0.6808     -0.7709
H     -4.1119      5.4717      9.9047
H     -2.0974     10.4370      5.7508
H      5.5042      0.7002      4.2678
C     -0.5490      9.0594      4.8456
C     -3.8766      7.0303      9.6990
H      4.8893      5.1565      0.8222
H     21.0538      9.5284     15.5210
C     -4.5869     11.7217      7.4855
H     -3.1487      6.0919      2.3594
H     -3.8551      9.8745      4.8083
H     -7.3376     14.7392      8.9016
C     -0.1904      7.2882      7.7861
C      0.3301      3.6853      5.5449
O      7.9986      5.3339      4.5288
C     -1.5315      7.9206      5.6499
C     -6.4039     14.4443      6.8430
C      5.3690      2.0586      6.2876
C      3.1744      0.7277      5.9546
H      8.5058      5.9993      5.0924
H     -5.6360     15.1382      7.4272
H      5.6429      3.4856      7.9373
H     -5.0716      9.9959      9.5029
H     -0.8261     10.0114      6.5197
H     19.3652     12.3936     18.0106
C      2.0116      4.9383      7.0381
H     -0.6776      4.0787      1.7008
C      3.9202      5.3013      5.1541
C     -9.9427     15.6121      9.2068
H     21.9582      8.5664     14.3958
C      8.5486      7.5111     10.8846
H      4.2338      4.8370      8.8170
H     11.1013      6.7451     10.6914
H     -5.6637     13.6907      6.2816
C      3.8200      2.6554      4.5939
C     17.6914      9.9222     18.5532
C     -6.4829     12.7461      8.7980
C     -5.1530      9.4761      8.3756
C      5.7678      4.5525      8.0272
C     -7.0499     13.9181      8.1737
H     -0.0041      4.5714      8.9444
H      1.8043      4.1612     -0.8066
H     19.1243      9.4251     13.5259
H     -1.2035      2.8962      6.1327
C     14.6820     10.1445     13.9550
H    -10.3648     17.7255      9.3018
H     -3.4237      9.1811      3.0146
