262

C     19.5653      9.0241     13.8589
C      4.1136      1.5429      6.9695
C      2.9799      3.3083      1.1823
C      7.3684      4.9527      2.5994
H     -2.7183      3.4268      2.2426
C      7.6438      3.4188      2.9731
C      3.1013      4.1742      5.4648
C      6.9521      9.7548     10.7083
C     15.9791      7.1442     19.5516
C      6.2390      2.0866      4.2799
C      6.3717      8.6688      9.8620
C     13.8749      8.7885     13.6090
N     -0.1780      3.0810      6.4994
C     13.3345     -6.6911      0.2899
C      3.1177      4.1348      6.8964
H     12.7681     -6.6508     -0.8248
C     15.4812      6.3561     17.4590
C     16.6079     10.3843     16.5446
H      1.3966      0.9153      9.4405
H     -2.7678      2.2497      5.0856
H     17.3796      5.4647     16.2558
H      5.8575     11.4784     11.6838
C     16.7067      8.9855     16.2289
H      7.9285      9.9879     10.0482
H      8.1412      3.3268      3.9298
H     12.6607      6.8225     10.9312
H     -0.9958      5.1948      6.3897
C      2.9464      2.5767      7.3329
H      9.3705     -3.1762     -0.4098
H      7.2021      2.0183      4.9927
O     14.7653     10.3193     14.9978
C      8.2114     -0.1623      8.6954
C      6.7462      6.1277      9.8128
H     13.8523     -7.1231      8.8750
C      6.4152      2.8573      2.9533
H      6.5612      4.6223      6.9397
H      7.4600      9.7140     11.6588
H      4.3589     -3.1912      8.5191
C     17.1142     10.7207     17.7903
C      9.9569     -4.3280      4.9053
O     14.8963     -4.3734      5.0157
C     11.4347     -5.3253      7.0274
C      8.4985      8.1178     12.0737
C     20.2486      7.7518     13.2592
C      6.1634      7.4307     -0.6370
H      5.4922      3.3742      1.4092
H     17.7856      9.9556     14.1926
H      2.9693     -0.7701      3.9960
H      7.8037     -7.0830      8.1121
C      6.7682      7.0492     10.8727
C      8.0107      5.8502      3.3209
H     21.9502      9.5689     14.6603
C     -1.1600      6.6801      4.9462
H     15.7060      8.3492     21.1002
H      5.1388      1.1999      2.1238
H      5.7244     11.1840     10.0338
H      3.9592      6.1066     -0.0689
C      9.8232     -0.9790      7.1768
C      5.7125      5.4529      9.2950
C     15.8826      7.6642     18.0778
C      4.6579      5.6582      0.5964
C     17.4687      8.8325     14.7360
H      9.3110     -5.1180      5.1682
H      8.2504      8.1583      3.2070
H      6.1880     -0.5825      9.6598
H     17.7655     12.3843     17.2176
C     -0.0820      2.7576      8.9000
C     13.3056      8.2774     12.4391
C      1.6851      1.8769      7.0060
C     12.4144     -6.3082      1.2845
H      5.1370      7.7622     -0.4977
H     -1.5087      2.6571      5.8162
H      7.1962      4.1328      4.8060
H      5.2315      9.9711     10.6768
C      9.7936      7.5353     12.7409
O     15.0555     11.1496     12.9507
C      6.7402      8.5759      8.4256
C     16.4001      8.3116     20.2396
C      3.7553      1.3448      9.2343
C      3.4758      1.7243      4.5711
H     10.7323     -2.2727      1.1008
H      5.7357     -0.6899      6.8214
C      3.9758      3.5884      3.2657
H      8.3725     -2.5899      5.0964
C     10.5165     -4.2642      0.6359
C     10.8079      6.9467     11.8354
H     10.6048     -2.9096      7.1218
C      5.5005      2.8877      5.2180
H     18.7727     11.4501     18.4383
H      8.4001      2.9698      2.0055
H      8.2372      0.7407      9.2165
C      2.5395     -0.5381      8.2064
C      4.7598     -2.0267      8.0203
C     -2.2010      5.1656      3.4238
C     16.0445      9.6332     19.7258
C      2.7175      3.7582      2.5529
C      4.9011      7.9575      9.7043
H      1.7136     -1.4972      8.0127
H     16.2725      8.3515     14.0916
H     -2.5938      4.7252      1.2930
H     14.5788     -8.7651     -0.9139
O      5.5355      6.8811      6.6529
C     13.5537     -4.7462      4.3673
H     15.5569     10.5318     20.2968
C     10.0497     -4.1859      3.2763
C     10.9239     -5.1730      2.8088
H      5.8108      9.1320      8.1311
C      9.8989     -5.4664      7.2580
H      1.1659      2.8908      4.1168
H     14.7966      7.4997     11.0839
H      6.3056      2.0166      2.1536
H      0.4190      3.2395      9.7007
C      3.6793      1.9721      0.9528
C     12.9533     -4.0936      1.8899
C     -0.3674      4.1060      3.8525
C      7.3194     -1.7840      7.2839
H      1.6130     -0.0741      4.3867
H      9.1868     -6.1791      6.7796
H     15.3260      9.1575     19.1373
O     12.8286     -3.2649      6.3843
C      6.0908     -1.2672      7.7846
C     13.5651     -5.9658      6.4963
C     15.0535      7.8877     14.0481
H     15.4180      8.6817     16.4121
C     13.5978     -4.9018      2.8915
H      8.5276     -0.8873      9.5775
C      3.1102      0.9645      3.3900
C      0.5219      2.6540      7.6041
C     10.1336     -2.0809      6.4074
C     -2.2692      3.1868      5.4003
C     17.8589     11.8223     18.0607
C      2.2764      3.0994      9.4557
C     11.5104     -4.7343      1.5356
C      4.0103     -0.8285      8.1592
N      2.3835     -0.1747      3.7411
H      1.6900      0.1956      0.8434
C      2.6082      0.7541      0.2081
O     17.0376      6.4177     15.9018
C      9.2691      6.7320      1.0146
H      2.1160      0.5997      6.7966
C     -2.1099      4.4636      2.0916
C      9.6862     -5.2578      9.0504
H      1.8464      2.0426      5.9801
H      8.2078      4.6442      0.6045
H      7.8137      9.5830      7.0170
C     10.4929     -3.1221      0.2365
H      4.1845      8.6086      9.2925
H     15.4985     -6.1212      9.1501
H     -2.4158      5.8350      6.1722
H     11.7558     -3.3167      4.4592
H     13.6208      8.7727     10.3713
H      3.2399      0.1413     -0.1589
C     14.9378      7.8507     15.5142
H      4.7072      5.6339      9.7206
C     14.2751      8.4939     11.2449
C      5.9253     10.6924     10.8773
H      2.4448      2.7195     10.4348
H     16.9254     11.1859     15.6181
C      4.2266      8.4267      4.7805
C      7.9119      7.1442      2.8344
C     20.8647      9.8887     14.4243
C     18.7727      8.4153     14.9031
C      4.2287      6.1234      6.4524
C      1.8849      5.1172      2.4767
C      6.0310      5.7508      0.2345
C      5.3500      7.5374      4.3952
C      7.8874      6.7412      1.4038
C      4.1322      4.8667      7.5306
C     14.4619     -7.6812      1.0593
H      9.3048      5.8078      5.2052
C      6.2928      7.5026      5.6446
H      9.4587      5.7588      0.4785
C      7.3282      5.4547      1.0666
H     -1.0514      3.2432      3.3011
H     10.6375     -5.5166      9.6159
O      7.4380      7.6620      5.5285
H      8.8791      8.7505     11.2953
H      2.6630      1.8056      3.0411
H     12.6322     -3.0648      2.5630
H      4.8409      5.1708      4.7990
C     12.1679      7.5040     11.6840
C     15.6436      6.3650     15.9963
H     14.1532     -5.1241      8.5193
C     -1.7718      4.4255      4.5698
C      0.3815      6.8059      5.1797
H      4.7486      7.2131     10.5003
H      3.2154     -0.1857      5.8440
C      1.2352      5.6784      4.6910
H      3.8915      0.0135      2.2423
H     16.4686     11.2123     13.8764
H     12.7806     -6.1649      8.5423
C      7.9869     -6.5758      9.0080
C      4.4443      0.6175      8.1520
O      6.1361      4.1823      5.1067
C      6.1432      7.6949      3.3030
C      9.4691     -2.8174      5.3337
C     12.8001     -6.4284      2.7076
C     -1.3318      6.7276      3.4823
H     17.2445      7.9909     20.8110
H     14.9793      9.1795     11.8497
H     -2.8295      3.5741      6.4247
C      2.3784      0.5038      9.1946
C      0.5350      5.1534      3.2982
C      5.3192      3.5101      2.5825
H     14.0794     -8.4685      7.7019
H      8.6539      8.2107      7.6001
H     10.5121     -1.0395      8.0259
H      7.2510     -2.3123      6.3244
C     14.5285     -6.2229      8.7286
C     -1.6812      5.4633      5.6088
O     17.4708     11.0649     13.6517
C      4.0178      0.9835      2.2613
C      1.4636      4.4665      5.4993
C     14.7849     -6.4168      7.2120
C     14.8769     -8.6170      0.1721
H     11.3256     -6.4340      1.0561
H      1.9752      1.1780     -0.5092
H     11.3589     -2.0516      5.9536
H      5.8731      1.0824      4.2521
C     12.3211     -3.8821      5.1858
C      8.6838     -5.8162      9.7666
H      4.6322      6.0709      1.7410
H     20.7918     10.3543     13.5552
C      8.3920     -0.7756      7.4920
H      9.8312      7.0137      2.1321
H      9.9050     -2.0458      4.6059
H      5.9922      1.2110      9.6716
C     12.5478     -5.7198      7.5663
C      0.4501      3.4691      4.9579
O      8.5481      5.3893      4.5700
C     11.3039     -4.9843      5.5918
C      6.5567      1.7303      7.3960
C      5.5145      2.2266      6.5187
C      3.6298      0.8935      5.7022
H      6.4547      7.5324      8.1746
H      5.6999      3.5755      8.2082
H      8.5382      9.7860      8.6577
H     13.2968     -4.2110      6.5927
C     14.8069     -8.0259      7.0901
H     -0.9031      4.5571      1.7023
C      3.8024      5.4177      5.2662
C      3.4481      2.6942      8.7126
H     20.6333     10.7777     15.0766
C      8.2179      7.0384     11.1389
H      3.5066      5.1713      8.4137
H     10.5459      6.4854     10.8989
H      7.2819      1.3260      6.5374
C      3.9267      3.1156      4.6794
C     17.1292      9.7050     18.7524
C      6.7091     -0.2323      8.7713
C      7.9130      9.1404      7.9750
C      5.6306      4.7301      7.9561
C      5.9856      1.0598      8.5506
H     -0.8553      3.4239      8.8719
H      9.8193     -4.3392      8.7059
H      9.9365     -0.1773      6.4650
H     19.0518      9.9464     13.2063
H      8.7066      6.1841     11.7818
H     -0.8687      3.7777      6.6906
C     14.7635     10.1779     13.8105
H      1.7233      4.0984      9.3626
H      9.7113     -3.7118      2.4269
