265

C     19.5159      9.5610     13.8966
C      4.1516      1.6719      7.0075
C      2.9168      3.2566      1.2480
C      6.9537      5.1141      2.7766
H     -2.4479      3.4789      2.5067
C      7.5377      3.7806      2.7530
C      3.2202      4.2926      5.3818
C      7.1006      9.6083     10.5352
C     15.8570      7.2125     19.3531
C      6.1266      2.2465      4.2764
C      6.5260      8.3012     10.0034
C     13.3883      9.0008     13.6285
N     -0.2725      3.1455      6.3579
C     13.5164     -7.0491      0.6390
C      3.3345      4.2041      7.0258
H     13.3509     -7.0742     -0.4605
C     15.7605      6.3952     17.3890
C     16.8353     10.9709     16.4040
H      0.9770      0.4429      8.8195
H     -2.8843      2.4778      5.0545
H      5.9117      5.1367      2.9388
H      6.3141     11.6400     10.9128
C     16.4895      9.3698     16.0808
H      7.9287     10.1836     10.1116
H     12.6389      7.4768     10.9003
H     -0.9696      5.1094      6.5550
C      3.2555      2.6385      7.4383
H      9.9658     -2.9106      0.6674
H      6.8760      1.5162      4.4035
O     14.6463     10.7580     14.9054
C      8.4211      0.3709      8.9560
C      7.2125      5.9173      9.7713
H     14.9656     -7.6121      9.0501
C      6.4609      2.7452      2.8664
H      6.2654      5.4047      7.2612
H      7.2372      9.5793     11.6435
H      4.5071     -2.8733      8.2734
H      4.8171      7.1910      9.6623
C     17.3344     10.9644     17.6654
C      9.8446     -4.4621      4.7841
O     14.8431     -4.3081      4.7913
C     11.2454     -5.6174      6.9601
C      8.7106      8.1937     12.1593
C     20.3794      8.2264     13.3772
C      6.3450      7.5414     -0.4757
H      4.9692      4.0585      1.3469
H     17.1378     10.2035     14.1905
H      0.9934      0.2525      3.3013
H      8.6395     -7.1977      8.3061
C      6.9840      7.2442     10.9281
C      7.8072      5.8242      3.4801
H     20.7209      9.5291     15.7507
C     -1.1455      6.6419      5.0109
H     14.8027      8.6358     20.0522
H      4.4972      0.7389      2.8663
H      5.7813     10.7954      9.4992
H      3.7671      6.6896     -0.0851
C      9.9750     -1.4192      7.3114
C      6.1348      5.1932      9.3957
C     15.8868      7.6323     17.9197
C      4.7041      6.0933      0.1979
C     17.3675      9.4881     14.8335
H      8.9375     -5.1829      4.9719
H      8.3323      7.6626      3.6731
H      3.4874      0.7287      9.8509
H      6.6268     -0.3130      9.8672
H     17.4736     12.8295     18.6096
C     -0.4233      2.6024      8.5792
C     13.0643      8.4653     12.1081
C      1.7060      2.2384      7.0700
C     12.3794     -6.6802      1.4372
H      5.3988      8.1577     -0.2767
H     -3.2594      3.6572      4.0707
H      6.4923      4.3219      4.1589
H      5.2231     10.6411     11.4074
C      9.9688      7.8241     12.8974
O     14.7122     10.9603     12.7587
C      6.9697      8.1203      8.4124
C     15.8452      8.5280     20.2609
C      3.1718      1.0291      9.0348
C      3.3219      1.9237      4.5844
H     11.6604     -2.6198      1.5588
H     18.9131     12.3207     18.6425
C      4.1508      3.6183      3.2144
H      8.3973     -3.6326      6.0242
C     10.9868     -4.3678      0.5731
C     11.0087      6.6909     11.9343
H     10.1546     -3.5071      7.2587
C      5.4549      3.0432      5.3974
H     14.3799     11.9336     12.7832
H     17.7130     11.2990     19.5783
H      7.9877      4.0425      1.8455
H      8.2648      1.2049      8.4381
C      2.4777     -0.8358      8.0326
C      4.8907     -1.7297      8.2999
C     -2.0334      5.2052      3.4002
C     16.1214      9.8849     19.3664
C      2.9972      3.8044      2.5926
C      5.0619      8.2934     10.0900
H      1.6800     -1.5923      7.8157
H     15.7089      8.1845     13.4820
H     -2.3452      4.7964      1.1438
H     14.5686     -9.3298     -0.5071
O      5.1622      6.9972      6.6112
C     13.5286     -4.8497      4.6039
H     16.1949     10.6376     20.2341
C     10.3710     -4.1518      3.4550
C     10.8463     -5.2315      2.9292
H      5.8906      8.4885      7.9444
C     10.1508     -6.0461      7.8218
H      1.2644      2.5877      4.4295
H     14.1740      8.4758     10.2874
H      6.7858      1.9864      2.0959
H      0.2344      1.9856      9.1361
C      3.6588      1.8800      0.9178
C     12.7275     -4.4678      2.1563
C     -0.0352      3.9966      3.8112
C      7.4442     -1.6912      7.3569
H      2.3977     -0.4604      4.1872
H      9.2926     -6.2720      7.2422
H     15.3260     10.2259     18.6386
H     14.2632      7.0901     13.1350
O     12.9089     -3.5497      6.4446
C      6.4623     -1.2311      8.2311
C     13.4674     -6.0984      6.7339
C     14.7699      7.8563     13.8919
H     15.4243      8.2523     15.8158
C     13.4819     -5.3292      3.1148
H      8.5053      0.4548     10.1362
C      2.6002      1.5248      3.3518
C      0.3163      2.7934      7.4232
C     10.0976     -2.7384      6.5089
C     -2.3747      3.0563      4.4213
C     17.8940     11.9353     18.6923
C      2.8000      3.4738      9.9000
C     11.7143     -5.2512      1.4654
C      3.9492     -0.8608      8.0322
N      1.7823      0.4611      3.8654
H      1.5789      1.2940      0.7015
C      2.3458      1.2606      0.0553
O     16.9429      6.8874     15.4995
C      9.2816      6.8284      0.8389
H     17.9592      9.4036     19.4022
H      1.4290      1.4178      7.6257
C     -2.0783      4.4966      2.1700
C     10.6277     -5.7420      9.3852
H      1.4977      1.7349      6.2014
H      7.5416      5.1967      0.5525
H      9.1819      8.8736      7.7452
C     10.9754     -3.1503      0.8852
H      5.2071      9.3827      9.6745
H     15.7052     -5.6460      9.3497
H     -2.6464      5.0990      5.8859
H     12.0550     -3.2102      4.6670
H     14.4381      9.7976     11.6367
H      2.5646      0.2514     -0.0858
H     -1.2552      1.7607      8.6003
C     14.7934      7.4172     15.3855
H      5.3089      5.2798     10.1440
C     14.4817      8.7108     11.5786
C      5.9499     10.7183     10.5225
H      2.7156      2.9552     10.7686
H     16.8849     11.9183     15.9369
C      4.2216      8.6807      4.6322
C      7.5427      7.3051      3.0252
C     20.5280     10.1496     14.8030
C     18.5940      8.8866     14.7853
C      4.1801      6.2425      6.4222
C      2.0932      5.0637      2.5843
C      5.9999      6.5470      0.4682
C      5.5261      8.0401      4.2209
C      7.9064      7.2057      1.4642
C      4.1951      5.2754      7.5518
C     14.7026     -7.7286      0.9462
H      8.9192      4.5582      4.0856
C      6.1729      7.1844      5.3246
H      9.1355      5.6625      0.5061
C      7.1830      5.8442      1.3430
H     10.8452     -6.3526     10.3104
O      7.3366      6.8193      5.9317
H      8.7609      9.3997     11.7798
H      2.1984      2.4618      3.0764
H     12.2134     -3.3618      2.3658
H      4.4458      5.3413      0.8454
H      4.7846      5.9785      4.4893
C     12.1928      7.4370     11.7808
C     15.6832      6.4035     15.8496
H     13.9524     -5.9541      9.2122
C     -1.4221      4.3432      4.3718
C      0.3284      6.6937      5.3399
H      4.5119      8.4740     11.2532
H      2.9808      0.1093      5.6073
C      1.3482      5.7768      4.7434
H      3.3702      0.2081      1.7824
H     12.5440     -5.8907      8.5050
C      8.6000     -6.9985      9.4265
C      4.3700      0.5794      8.0327
O      6.2973      4.3591      5.2074
C      6.3161      8.0566      2.9715
C      9.2678     -3.2838      5.4448
C     12.7880     -6.6395      2.9025
C     -1.3855      6.5799      3.5779
H     16.4020      8.5766     21.1542
H     15.3066      8.4891     12.1543
H     -2.1140      2.1755      3.7736
C      2.0424      0.2537      8.5723
C      0.8347      5.1870      3.4376
C      5.2106      3.3200      2.3625
H     14.0848     -8.4365      7.7497
H      8.5284      8.5269      9.2317
H     10.8668     -1.3267      7.9335
H     15.4545      9.2773     15.7939
H      7.5042     -1.8202      6.3074
C     14.9478     -6.3106      8.8527
C     -1.5531      5.1683      5.6537
C      3.6061      1.1465      2.2249
C      1.6814      4.4584      5.6152
C     14.6540     -6.7458      7.3429
C     15.3524     -8.9707      0.2607
H     11.9115     -7.5025      1.7489
H      4.6064      1.7306      0.5051
H      2.1705      1.6947     -0.9272
H     11.0503     -2.6264      6.0567
H      5.2475      1.5411      4.0793
C     12.3066     -4.1611      5.2242
C      9.2597     -5.8241      9.9865
H     17.0861      7.3611     14.6650
H     21.7065     10.2567     14.2581
C      8.6640     -1.0057      7.9452
H      9.9723      6.6706      1.7257
H      8.9900     -2.7075      4.5685
H      5.3613      1.2226      9.6385
C     12.5050     -5.5915      7.5204
C      0.7607      3.3852      5.0933
O      8.9091      5.6298      4.1427
C     11.0325     -5.0717      5.5885
C      6.3290      2.1708      7.5655
C      5.5922      2.1633      6.4921
C      3.3612      0.9584      5.6037
H      6.9632      6.9085      7.8711
H      5.6165      3.8244      7.8769
H      8.1902     10.0184      8.3535
H     12.6381     -3.1483      7.3773
C     14.8984     -8.0869      7.0740
C      3.8450      5.5311      5.0242
C      2.9544      2.6047      8.8921
H     20.6388     11.3070     14.8496
C      8.4654      7.3334     11.1627
H      3.6403      5.7039      8.6546
H     10.8884      5.4939     11.9760
H      7.3072      2.3965      7.5678
C      4.0794      3.1998      4.7808
C     17.3867      9.6705     18.6142
C      6.7561     -0.0082      8.9688
C      8.3601      8.9059      8.2509
C      5.5169      4.8954      8.1216
C      5.8854      1.2505      8.6772
H     -0.2256      3.5770      8.6131
H     10.8983     -4.6999      9.4211
H      9.6892     -0.6712      6.4020
H     19.0657     10.1572     12.8847
H      8.1857      6.4692     11.7111
C     14.2410     10.0855     13.8478
H      2.7764      4.3738     10.1014
H      9.7745     -3.2956      2.9867
