259

C      6.8299      9.0894      0.7852
C      4.3228     14.4812      6.9786
C     15.9899      3.3441      1.3100
C      7.4456     17.9147      2.7378
H      9.9979      3.9472    -10.7770
C      7.8287     16.3348      2.8788
C      3.2101     17.0875      5.3527
C      6.7884      9.6546     -2.4769
C      2.9465     20.1795      6.8466
C      6.2067     15.0206      4.3122
C      6.2689      8.2740     -3.0599
C     13.8185      8.7521      0.7110
N     12.8380      3.1019     -6.5058
C     13.5559      5.9841      0.1961
C      3.1499     16.8384      6.8946
H     13.7728      6.5265     -0.7756
C      2.5892     19.3253      4.4758
C      3.6232     10.5019      3.7042
H      1.2696     13.5168     10.0659
H      9.8477      2.9731     -8.9758
H     17.4685      5.7904      3.2572
H      5.9870     11.7251     -1.8839
C      4.1082      9.0579      3.3357
H      8.2427     16.2616      3.9508
H     12.0395      5.0051     -6.3726
C      3.2135     15.2752      7.4452
H     10.1189     10.3964     -0.4142
H      7.3182     14.9251      4.9391
O     14.7716     10.3292      2.0472
C      7.9913     12.6344      8.6489
C      6.4582      6.2304     -3.1326
H     14.0316      5.9634     -3.8910
C      6.4517     15.5158      2.9221
H      5.8604      4.8674     -5.9056
H      7.3115      9.5056     -1.6599
H      4.1573     10.1701      8.2164
H      4.7048      6.8243     -3.1894
C      4.0755     10.7720      4.9844
C     10.0443      8.6964      4.8488
O     14.7134      8.6474     -8.1213
C     11.0805      7.9098     -5.9420
C      8.5535      8.1860     -0.7146
C      7.3952      7.7521      0.1768
C      6.2118      6.9039     -0.6938
H     18.4439      4.3036      2.0651
H     15.5615     -0.6180      4.3408
H      8.0205      6.1838     -4.9723
C      6.8380      7.0982     -2.0091
C      7.9050     18.9101      3.5562
H      8.7425      9.1924      1.4989
C     11.8648      6.6529     -7.9527
H      3.4922     21.4248      8.4669
H     18.1046      1.1938      2.3950
H      5.1186     11.2084     -2.7610
H      3.7131      6.1203     -0.1453
C      9.7161     11.8500      6.9990
C      5.6654      5.4476     -3.6332
C      2.7311     20.7043      5.1783
C      4.6102      5.7019      0.5332
C      4.6265      8.7881      1.9810
H      9.1790      7.8783      4.6715
H      8.4459     20.7250      3.2824
H      3.7872     14.5198     10.4674
H      6.1929     12.6557      9.7814
H      5.1942     12.5531      4.0367
C     13.2372      2.8915     -4.3857
C     13.2838      8.3378     -0.5840
C     14.9393      1.6593     -5.7855
C     12.4403      6.7090      1.2545
H      5.4216      7.4880     -0.7555
H     11.1533      2.2034     -7.9799
H      6.4624     17.2403      4.2994
H      5.4728     10.4557     -0.8564
C      9.7955      7.8013     -0.0651
O     14.8865     11.2963      0.1165
C      6.6353      8.5336     -4.5731
C      3.5717     21.4622      7.4821
C      3.5874     14.2790      9.3653
C     16.2640      1.7637      4.5955
H     11.0420     10.9858      0.8844
H      5.8856     12.7132      6.6821
C     16.9403      3.5519      3.2359
H      8.5980      9.7294      5.8035
C     10.6682      8.7804      0.5973
C     10.8691      7.2671     -0.8829
H     10.7407     10.3748      7.3621
C      5.2340     15.8305      5.2163
H      6.1094     12.0603      5.5611
H      8.4682     15.8579      1.9839
H      8.3789     13.6322      8.7927
C      2.4895     12.4267      8.4742
C      4.6855     11.1175      8.0163
C     10.6755      5.3940     -9.5596
C      3.0883     22.6091      6.6625
C     15.5345      3.8348      2.5200
C      4.8239      7.8504     -2.9139
H      1.6162     11.9877      8.0685
H     15.9431      9.0474      0.7247
H     10.6971      4.8402    -11.8854
H     15.5005      4.0908     -0.8801
O      5.5594     19.7344      6.6759
C     13.4535      8.2079     -8.3826
H      2.4797     23.5105      7.1340
C      9.9513      8.6842      3.2580
C     10.9456      7.7698      2.8795
H      5.7736      9.1906     -4.4837
C      9.8730      7.2820     -5.5843
H     13.7718      2.5215     -8.2799
H     15.2783      7.7708     -1.6896
H      6.6093     14.9812      1.8508
H     14.4275      3.0770     -3.7448
C     16.5006      1.8866      0.9569
C     12.9257      8.9453    -10.9844
C     12.6601      4.1789     -8.8758
C      7.3501     11.1822      7.0051
H     14.1776      0.1432      3.8338
H      9.2381      7.2945     -6.3970
H      2.3769     22.3815      5.9116
O     12.8679      9.6259     -6.5275
C      6.1549     11.7506      7.6599
C     13.3445      6.8552     -6.1236
C     15.2934      8.0265      1.0009
H     15.6075      8.6651      3.2369
C     13.5724      7.9702     -9.9202
H      8.4651     12.1869      9.6454
C     15.8331      0.9638      3.1339
C     13.5041      2.3165     -5.7099
C     10.4471     10.6932      6.4295
C     10.6386      3.1066     -8.0043
C      4.8447     12.1074      5.2907
C      2.5024     16.5316      9.5124
C     11.7543      8.1188      1.5640
C      3.9380     12.2484      8.1343
N     15.2076     -0.1013      3.5799
H     14.4455      0.7004      0.3825
C     15.4732      1.1568      0.2929
O     17.0011      6.3563      2.6335
C      9.2493      6.6619      0.9622
H      5.5037     22.3985      6.2561
H     15.0553      0.6309     -5.9398
C     10.9124      4.6546    -10.9087
C      9.6997      7.4733     -4.0579
H     14.9673      1.8251     -6.7956
H      7.8864      4.6851      0.9921
H      8.2447      8.8748     -5.8092
C     10.4773     10.0417      0.4430
H      3.7871      8.0756     -3.0307
H     15.7865      6.3046     -3.9828
H     10.4368      5.9123     -6.4968
H     11.6082      9.9752     -8.2911
H     13.8018      8.7156     -2.6563
H     15.9681      0.1972     -0.0684
H     12.3565      2.4541     -3.8946
C     14.9680      7.8333      2.6790
H      5.0948      4.9499     -2.7570
C     14.2977      8.5175     -1.5619
C      5.7802     10.5492     -1.9030
H      2.6215     16.3168     10.7226
H      3.7316     10.9614      2.7019
C      4.2796     21.1653      4.7380
C      7.6290     20.1901      2.7864
C      8.0185      9.7730      1.4557
C      5.9049      8.2698      1.7546
C      3.9151      6.2039     -6.3087
C     14.6448      5.1575      2.3851
C      5.9106      5.7220      0.2990
C      5.7177     20.4224      4.3032
C      7.8349      6.7631      1.2722
C      3.9773      4.9342     -5.4034
C     14.5644      5.2005      0.9009
H      9.3889     19.0057      4.8541
C      6.3082     20.2051      5.7285
H      9.4467      5.6892      0.7928
C      7.1390      5.5283      1.2296
H     12.3719      3.4128     -9.5788
H     10.3279      7.0219     -3.3696
O      7.3821     20.8092      5.8167
H      8.4637      9.2837     -0.7022
H     12.5585      9.9485    -10.6209
H      4.6376      4.3226      0.7706
H      4.9094      5.8581     -8.0087
C     12.0634      7.7145     -1.2548
C     15.6149      6.3340      2.9572
H     14.7621      7.6796     -3.9262
C     11.1784      4.4695     -8.2945
C     13.3250      6.8995     -7.6094
H      4.7764      7.6312     -1.9899
H      3.0538     13.0891      5.9064
C      1.1826     18.8212      4.5057
H     17.1133     -0.1376      1.5262
H     11.8263      6.9580     -4.2424
C      7.6833      6.3303     -3.9007
C      4.5705     13.6218      8.1778
O      5.8759     17.1064      5.1158
C      6.3355     20.6397      3.1363
C      9.5772      9.9618      5.5150
C     12.9620      6.5794    -10.2039
C     11.4618      6.6812     -9.3835
H      4.6643     21.2892      7.2810
H      9.8747      3.3130     -7.0061
C      2.1321     13.4012      9.2976
C     13.4949      5.2688     -9.6073
C     18.1160      3.5695      2.6203
H     13.8746      4.5226     -5.3273
H      8.3111      8.1563     -4.5108
H      9.9216     12.1586      7.9458
H     15.2303     -0.5195      2.7492
H      7.5842     10.4747      6.1899
C     14.7228      6.5233     -4.1701
C     11.4285      5.4715     -7.2468
C     16.8721      0.8170      2.1451
C      1.7423     17.4561      5.4735
C     14.7878      6.3049     -5.6080
C     15.2701      4.0902      0.2545
H     11.4054      6.5995      0.8413
H     17.3276      1.9231      0.1771
H     15.3699      1.8558     -0.6951
H     11.1991     10.9532      5.7082
H      5.4315     14.1096      4.2206
C     12.2956      9.0079     -7.8118
C      8.6541      6.9147     -3.2855
H      4.4593      5.7656      1.7377
H      8.3138     10.3265      0.5247
C      8.3485     11.7622      7.5359
H     10.1464      6.8554      1.6434
H      9.5116     10.6449      4.5681
H      6.4319     14.8869      9.1244
C     12.3071      7.3996     -5.2696
C     13.4431      3.5458     -7.8172
O      8.5876     18.5204      4.7887
C     11.2866      7.8892     -7.4047
C      6.6639     14.6443      7.2467
C      5.4487     15.1628      6.5080
C      3.8655     13.6763      5.5643
H      6.1487      7.6066     -5.1909
H      5.4524      3.7668     -4.7049
H     13.6803      9.8560     -7.1242
C     14.7668      4.8992     -6.0543
C      3.6227      5.6423     -7.7480
C      3.1785     15.6293      8.8790
H      8.0556     10.0169      2.4459
C      8.4620      7.0610     -1.8526
H      3.3820      5.2189     -4.5770
H     10.3150      7.0777     -1.7300
C     16.8610      3.1704      4.5635
C      4.4272     22.5564      5.7091
C      6.6162     12.6587      8.7711
C      8.0886      8.9983     -4.7855
C      5.3497      4.7461     -4.8882
C      6.0734     14.0014      8.4725
H     12.8015      3.8441     -4.5323
H      9.7021      8.4850     -3.7411
H      9.8855     12.8824      6.8569
H      5.9420      9.3400      0.0860
H      8.3733      6.1087     -1.2249
H     11.9664      3.3746     -6.1841
C     14.5872     10.2909      0.8304
H      2.1425     17.5629      9.6345
H      9.8286      9.5950      2.6528
