264

C     19.9040      8.5938     13.7066
N     -1.7089     10.4805      1.3796
C      3.7587      1.5514      7.1767
C      2.1819      2.4209      2.2561
H    -11.7191     13.9949      9.9613
C     -5.7506     17.8797      2.1187
H     -3.2185      6.7592      3.0202
C     -5.5627     16.3486      2.4978
C      3.3592      3.9668      5.5844
C     16.5586      7.3946     19.3309
C     -6.8190     14.7925      3.7645
C     -6.7781      8.0225      9.0098
C     13.6652      8.6059     13.8641
N      0.1963      2.8279      6.3525
C      0.7663      6.2121      0.7630
O     -1.5864      2.9434      1.5921
C      3.0643      3.8489      7.0386
H     13.5386      7.4441     10.5130
C     15.8793      6.4689     17.5211
C     16.7416     10.4878     16.0688
H     -1.6183      3.1414      7.2367
C     17.0331      9.0848     15.7694
H     -7.8792      7.2341     10.5929
H    -10.7230     16.4030     10.6406
H     -1.5906      5.6000      7.3079
H     -6.8014     14.3116      9.1057
C      2.9005      2.6366      7.8957
H     -5.6396     14.6050      4.0769
O     14.1845     10.6992     15.3288
C     -5.3461     11.9860      8.9843
C      6.2357      5.8197      9.7835
H      1.4084      0.7612      6.8103
H      3.8526      4.8269      8.7711
C     -6.7766     15.9343      2.9988
H      5.8827      3.1440      7.4718
H     -8.8130     11.8405      9.2647
H      1.4132      7.6921      9.4924
C     17.2738     10.7500     17.2902
C     -2.5780      8.7131      5.1500
O      2.0439      8.8372      4.5798
C     -1.2989      8.2786      7.2559
C      8.8531      7.9996     11.8240
C     20.5531      7.6562     12.7068
C     -6.6858     20.1828     -1.0217
H     -8.1077     17.1584      1.5326
H     17.0653      9.0769     13.6033
H      2.7742     -1.6969      4.5205
H     -5.4084      6.0271      8.2596
C      7.5719      2.9267      7.9954
H      1.2138      1.3810      1.2100
C      7.1784      6.3874     10.9250
C     -5.2277     18.6389      3.0715
H     -4.6280     20.6766      2.3057
C     -0.9208      6.9396      5.2748
H     16.5475      8.5569     21.1849
H     16.3785     11.0021     15.3399
H     -7.9526     19.5596      0.9970
H      2.9211      5.7178      0.6941
C     -3.2583     11.2629      7.7168
C      6.1965      4.6609      8.8951
C     16.1949      7.6816     18.0019
C     -7.5096     17.9190     -1.0000
C     17.5374      8.6411     14.4733
H     -3.5042      8.2877      5.3025
H     -4.4086     20.4247      4.0930
H     -9.3925     13.8455     10.5794
H     -7.3638      9.9513      9.1974
H     18.7041     12.4118     17.5619
C     -0.3311      3.6808      8.3310
H     21.8008      9.5913     14.5305
C     13.2716      8.6956     12.3660
C      1.5963      1.9523      8.2051
H     11.0816      6.8037     10.5952
C     -0.5062      6.0714      1.5326
H     -7.0708     20.9084     -1.5181
H     -1.5547      2.7079      5.3071
C     10.2198      7.2058     12.4356
O     15.8082      9.7621     14.0476
C     -5.8414      7.9612      7.9572
C     17.1139      8.5398     20.2403
C     -9.4503     14.3025      9.6063
C      2.0893      1.0660      4.7102
H     -1.6552     10.6026      2.3177
H     -6.8850     12.4299      6.5259
H      3.1548      7.8148      8.7728
C      4.0387      3.5627      3.3723
C     -2.2902      8.1848      0.7219
C     11.4596      6.8656     11.6561
H      8.7411      2.6737      8.2468
C     -7.6024     15.1394      4.9448
H    -10.7404     11.7914      9.6363
H     17.4482     12.8475     16.7597
C    -10.7851     12.4805      8.7268
C     -8.3630     10.9416      7.4827
C     -1.8277      5.1211      4.0121
C     16.7862      9.8760     19.5555
C      2.5562      3.5863      2.8923
C     -7.7344      6.8120      9.5512
H    -11.4640     11.9431      7.9691
H     15.2295      7.2093     13.1825
H      0.3744      3.3531     -0.1800
O     -7.2761     19.4563      6.3859
C      0.8692      8.3482      4.4604
H     -7.9650     11.6850      6.7188
C     -2.4956      8.7830      3.7793
C     -2.3847      7.4031      3.0589
H     -4.5715      9.9856      8.8020
H     -4.3728     15.9873      2.7008
C     -2.6353      8.7558      7.7678
H      2.3594      3.6248      5.1821
H     -9.3452     17.7072     -1.4077
C      2.9641      1.2358      2.1516
C     -0.1721      8.4084      2.0086
O     -8.7783     17.3624     -0.5638
O      7.8458      3.9270     10.2185
C     -0.2495      3.1131      1.7075
C      0.2277      3.8915      4.1356
C     -6.0931     10.4364      7.4336
H     15.5828     10.3420     19.0359
H     -0.1950     10.1790      4.2593
H     12.4664      8.1850     10.6008
O      0.3299      9.9299      6.2046
C     -7.1900     10.6779      8.3440
C      0.7812      7.2702      6.8062
C     14.5519      7.3759     14.0953
H     15.2981      8.3768     15.6620
C      0.4418      7.6717      3.0592
H     -5.1985     12.9225      8.4547
C      1.8441     -0.0970      3.6631
C      0.4926      2.7831      7.6889
C     -2.4775     11.0785      6.6358
C     -1.9644      3.2938      6.1021
C     17.6638     12.2010     17.4364
C     -9.6763     16.8112     10.3806
C      0.7266      2.1751      2.0737
C     -1.4848      7.5038      1.7513
C     -9.3791     12.2390      8.4113
N      1.8493     -1.2027      4.6106
O     17.1595      6.2272     15.2738
C     -3.5649     18.8843      0.2062
H     18.7491      9.5595     18.2383
C     -2.7053      4.7223      3.0985
C     -3.0577      8.3842      9.1435
H      7.8611      3.5274      7.0712
H      8.2414      2.9278     10.5093
H     -4.9259      9.1223      6.3145
C     -2.3168      9.5378      0.6731
H     -8.4785      6.7834      8.7498
H      1.9310      6.0392      9.2689
H     -0.4088      9.1541      2.7014
H     13.9795      9.0673     10.6570
H     -2.1949      3.8170      1.7072
H     -0.2524      3.5906      9.2832
C     14.7879      7.3866     15.5275
C     14.1479      9.5469     11.7084
H      7.8467      5.6935     11.4750
H      1.5029     -2.1787      4.2096
C     -8.5204     21.2025      4.0779
C     -5.0593     20.0347      3.0404
C     20.8093      9.7450     14.1115
C     18.7724      8.1593     14.5105
C      4.1932      5.9269      6.4664
C      2.0373      5.0893      2.5739
C     -7.2019     19.0627      0.0216
C     -7.2768     20.5902      4.0398
C     -4.7828     19.2715      0.1214
H     14.7602     10.1881     12.0610
C      4.0429      4.7331      7.7459
C      1.8137      5.0776      1.1112
H     -3.3295      9.8082      7.3915
C     -6.3605     19.9986      5.4371
H      1.0861      1.3133      5.2545
H     -2.6945      5.3716      2.5290
C     -6.2136     18.4856      0.9496
H     -0.3003      2.9197      3.6092
O     -5.2139     20.2468      5.5584
H      9.5040      8.8248     11.8800
H     21.1783     10.4462     13.1297
H      1.4109      3.2990      3.9351
H      1.8725      4.1274     -0.8122
H      4.7540      5.0751      4.7415
C     12.5665      7.7086     11.4578
H      6.2032      4.3722      6.4246
C     15.8418      6.1777     15.9192
C     -1.7183      4.6635      5.3616
C      0.6679      7.1371      5.3375
H     -6.9348      8.6606      9.8016
H      3.0359      1.6079      4.4722
C      1.5752      5.7616      4.8851
H      1.7839     -0.9598      1.9542
H     15.1985     10.7870     15.5293
H     -2.4125      7.7357      9.7140
C     -4.8568      6.8832      8.0650
C     -8.7033     13.5081      8.1791
C     -6.5454     20.5761      2.8736
C     -2.8771     10.2805      5.4261
C     -0.0710      6.1710      3.0172
C     -1.3846      6.4585      3.9319
H     -2.6423     11.8466      8.4747
H      2.3221      3.1187      0.3337
H     -6.5771     17.2258     -1.3307
H     -2.9283      2.7993      6.1320
C    -10.9355     13.8948      9.2793
H     -1.1426     11.3075      6.8850
C      0.8175      5.1195      3.6486
C     -7.9707     16.3800      2.3695
H      1.3869      5.2886      8.0422
H     18.1322      8.7749     19.9921
C      7.2755      3.8417      9.1397
H     -1.8398     11.3618      0.8015
H     -6.2825     10.5550      6.3949
C      2.0552      7.1158      8.9020
C     -1.3111      5.5805      6.3066
C      2.0982      0.0922      2.3956
C      1.1829      4.9153      6.0932
C      1.9862      7.1769      7.3678
C      1.4588      3.9626      0.1513
H     -0.9417      5.2875      0.9231
H     -3.8013      6.6827      7.3604
H      6.8164      2.1693      8.1803
H     -2.4081     10.6555      4.5009
H     -7.1423     13.8792      3.3797
C     -0.0921      9.4666      4.8779
C     -4.1346      7.4864      9.2444
H     -7.5721     18.8333     -1.6740
H     -3.4233      9.3330      3.7667
C     -4.7050     10.9176      8.2252
H     -3.0005      3.6322      3.2823
H     -3.8127     10.3082      5.6928
C     -0.1887      7.6529      7.6642
C      0.3407      3.9027      5.6128
O     -4.6394     18.0576      4.0544
C     -1.3033      8.5385      5.7225
C     -7.0002     13.3522      6.8061
C     -8.1374     14.1959      6.0094
C      2.4044      0.9820      6.3457
H     -6.0880     13.7216      6.5417
H     -8.0921     15.9966      9.1542
H     -4.7136     12.0778      9.8603
H      0.6796     10.9225      5.9833
H     -8.5139     13.4077      5.2197
H      0.2036      8.2946      8.6664
C      1.7362      4.4850      7.3601
H     -0.3256      4.0551      2.0239
C      3.8874      5.3470      5.2978
C     -9.2125     15.8001      9.2316
H     20.3159     10.6189     14.5718
H      0.7261      5.8776     -0.3046
C      8.1566      7.4382     10.5665
H     -9.0305     16.1305     10.9217
H     11.4550      5.8568     11.9564
C      4.2913      3.1116      4.7105
C     17.7205      9.7150     18.1585
C     -6.6979     11.7738      9.1737
C     -5.4960      9.0488      7.2066
C      5.5588      4.1480      7.5667
C     -7.3062     13.3742      8.4426
H     -0.2369      4.7733      8.3767
H     -3.2293      9.7627      0.1910
H     -7.2780     11.6711     10.2395
H     -2.6055     18.4063      1.0101
C     14.5374      9.7044     14.2195
H     -9.7216     17.9747     10.2486
H     -1.8417      9.4529      3.3825
