262

C     19.6328      9.1684      0.9267
C     17.2562      1.5903      7.3014
C     15.9764      3.0165      1.3466
C      6.7441      4.7697     15.3107
H      9.4542      3.6546      2.7501
C      7.4185      3.6855     15.8549
C     16.0618      3.9438      5.5563
C      6.5632      9.7209     10.5964
C     15.9780      7.2315      6.6586
C      6.3357      2.0876     17.2042
C      6.2537      8.4814      9.7865
C     13.7375     -4.1323     13.6853
N     12.8410      3.2439      6.3947
C     13.7456     -7.0574     13.2494
C     16.1005      3.9772      6.9685
C     15.5113      6.1021      4.5322
C     16.7752     10.8619      3.5322
H      1.2415      0.4743     22.9886
H     10.1994      2.1129      4.3702
H     17.4090      6.3753      3.4233
H      5.8568     11.5915     11.7991
C     16.6653      9.3265      3.2334
H      7.5210     10.1401     10.5163
H      7.8811      3.8506     16.8310
H     12.8387     -6.4335     11.2196
H     11.7444      5.8614      6.5837
C     16.0296      2.7127      7.6158
H      9.8327     -2.7582     12.7164
H      7.4422      2.0683     17.4863
O     14.1759     -2.3006     15.2324
C      8.2399     -0.1328     21.9303
C      6.8740      6.3193      9.4723
H     14.7813      5.2850      8.8997
C      6.4386      2.6019     15.8277
H      6.3305     -7.5230     20.5439
H      6.6102      9.0742     11.5667
H      4.5806     -1.9867     21.8163
H      5.0551      7.4496      8.8663
C     17.6393     11.1383      4.6768
C     10.0715     -4.2889     17.8655
O     14.8259      8.4747      4.8920
C     11.3133      7.7674      6.9379
C      8.5454     -4.5640     12.3440
C     20.0763      7.9894      0.1381
C      6.1521      7.3659     12.1189
H     17.5417     10.3587      1.5154
H     15.4636     -1.0517      3.5494
H      8.6669      5.8422      8.2026
C      6.8318      7.3517     10.7641
C      7.3081     -7.0497     16.0993
H     21.6760      9.1044      1.3382
C     11.7719      6.5303      4.8466
H     15.1661      8.6319      7.5808
H     17.6220      0.4807      2.3325
H      4.8069     11.1321     10.0544
H      3.6016      7.0081     12.9474
C      9.9850     -0.7096     19.9011
C      5.9715     -7.7537     22.3234
O      5.2208     -9.5047     23.2560
C     15.8694      7.4240      5.1239
C      4.2704      5.9257     12.9454
C     17.3625      9.2493      1.9474
H      9.4155     -5.1484     18.1400
H      8.7589     -5.7176     16.0118
H      4.0311      1.2407     23.4720
H      6.1136     -0.7282     22.5726
H     17.9192     13.1234      4.6065
C     12.8592      2.9329      8.7532
C     13.2847     -4.5718     12.2123
C     14.7697      2.0440      6.9980
C     12.4733     -6.4509     14.2894
H      5.4269      8.1137     11.9372
H      6.8902      4.7369     17.7117
H      4.6927     10.4102     11.4111
C      9.9768     -5.3828     12.9531
O     15.2560     -2.2369     13.4389
C      6.7456      8.7822      8.3104
C     16.2666      8.4852      7.3047
C      3.5296      1.3460     22.3589
C     16.4242      1.6008      4.6532
H     10.6176     -2.7960     14.6149
H      6.0825     -0.1681     19.9153
C      4.1048      3.3212     16.2931
H      8.9271     -3.0065     19.0911
C     10.8364     -4.4485     13.5627
C     11.0318     -5.9426     11.9294
H     11.2189     -2.5181     19.5934
C      5.6136      2.7662     18.1964
H     18.9134     12.6546      5.6940
H      9.0076      0.6165     22.0226
C      2.4800     -0.5754     21.5748
C      4.7800     -1.6087     20.7480
C     10.7635      5.1796      3.3424
C     16.5291      9.6837      6.4242
C     15.7021      3.6609      2.6682
C      4.8896      8.3178      9.5385
H      1.8644     -1.4325     21.6284
H     16.4392      8.4710      1.2407
H      9.4905      5.2937      2.0695
H     15.2306     -9.6785     12.1118
O      5.4599     -6.2138     19.3426
C     13.5696      8.0708      4.6954
C     10.3040     -4.3405     16.3964
C     10.9509     -5.3227     15.7170
H      6.0207      9.4253      7.9126
C     10.2161      7.6489      7.7079
H     14.0278      2.4336      4.7557
H     14.4913     -5.6614     11.0910
H      6.5706      1.6841     15.3743
H     13.8134      3.5733      9.1931
C     16.9150      1.9519      1.2191
C     12.7536     -4.2983     14.8421
O      6.8540     -8.3729     24.5109
C     12.6191      3.9976      4.1130
C      7.4539     -1.2769     19.9103
H     14.3270      0.0485      4.6794
H      9.2397      7.2826      7.6088
H     15.5717      9.8921      6.0841
H     14.4131     -6.2456     12.5833
O     12.5963     -3.1576     19.0611
C      6.3418     -1.0311     20.7264
C     13.5248      6.9776      6.7665
C     15.0734      7.8579      1.1119
H     15.7348      8.6177      3.1462
C     13.5551      7.6993      3.1036
H      8.3977     -1.0548     22.5503
C     15.6899      1.1940      3.2985
C     13.5330      2.6839      7.5153
C     10.3612     -1.9505     19.0817
C     10.2712      3.2418      4.6043
C     17.8959     12.6135      5.4475
C      3.1987      3.5667     23.0154
C     11.7513     -5.1502     14.3909
C      3.9160     -0.5714     21.0586
N     14.9805     -0.0776      3.7447
H     15.9039      2.0933     -1.0663
C     16.4470      1.2431     -0.2727
O     16.9602      6.2998      2.4490
C      9.3494     -6.4799     13.7812
H     18.3272      9.5608      5.6529
H     14.6951      1.1110      7.6725
C     10.0811      4.4891      2.2780
C     10.1922      7.5380      9.2881
H     14.8368      1.3012      6.2570
H      7.4954      5.1263     13.2610
H      7.8740      9.8170      6.9701
C     10.6306     -3.2490     13.5598
H      4.6108      9.2377      8.7860
H     16.1932      6.2187      9.2562
H     10.1540      5.8490      5.7782
H     12.1196     -3.0542     17.2429
H     13.6172     -4.3911     10.3699
H     15.5772      0.7427      0.3578
H     12.4358      2.0228      9.6086
C     14.8467      7.6619      2.6151
H      4.8976     -7.2879     22.6872
C     14.2868     -4.6437     11.2632
C      5.5266     10.6875     10.9638
H     16.7434     11.5945      2.5351
C      4.1176     -4.3827     17.3679
C      7.4809     -5.6472     15.7609
C     20.9225      9.7104      1.6023
C     18.6714      8.6793      1.8970
C      4.1991     -7.0128     19.2846
C     14.9160      4.8507      2.5512
C      5.6724      6.3635     13.1191
C      5.3233     -5.3530     17.1038
C      7.8520     -5.7272     14.2084
C      4.1768     -7.8556     20.4424
C     14.4964     -8.2020     13.9360
H      7.8520     -6.4876     17.8970
C      6.0455     -5.5387     18.3289
H      9.3725     -7.3741     13.3139
C      6.7254      5.5528     13.9438
H     12.3477      3.2645      3.4411
H     10.9617      7.3288     10.0205
O      7.3095     -5.1410     18.6824
H      8.6924     -3.8073     11.6855
H     12.4333     -3.4985     15.7025
H      4.3774      5.8804     14.1076
H      4.3794     -7.4739     17.2979
C     12.3439     -5.8318     11.9064
C     15.4898      6.1608      2.8932
H     14.6375      7.7155      8.8865
C     11.2275      4.3765      4.5645
C     13.2605      6.6748      5.1625
H      4.2786      7.8953     10.2523
H     15.8054      0.0512      6.5542
C     14.1282      5.5391      4.6230
H     16.2882     -0.0391      1.7112
H     12.6847      6.9658      8.6366
C      7.9577      6.5486      8.7299
C      4.5063      0.7927     21.3374
O      6.1137      4.2346     18.3121
C      6.2087     -4.9257     15.9605
C      9.5987     -2.9570     18.3927
C     12.9177     -6.6525     15.8149
C     11.5126      6.4026      3.4375
H     16.7073      7.8655      7.9290
H     14.7913     -3.8220     11.7654
H      9.2402      3.3484      4.6705
C      2.2997      0.4755     22.4408
C     13.4959      5.0256      3.4621
C      5.1760      3.3399     15.4158
H     14.1521      4.3084      7.4302
H      8.3090      8.3991      9.1188
C      6.1430     -8.6226     23.4597
H     10.7267     -0.7117     20.8318
H     14.1454     -3.0282     15.9740
H      7.4756     -2.0139     18.9612
C     15.0482      6.5620      8.7851
C     11.0704      5.4121      5.7001
C     16.6573      0.8890      2.2945
C     14.5816      4.3497      5.4298
C     14.7165      6.2968      7.3364
C     15.0745     -9.4076     13.3195
H     11.8647     -7.4072     14.2982
H     18.0082      1.7956      1.3846
H     17.3045      0.6861     -1.0148
H     10.9084     -1.3522     18.3773
H      5.7927      1.1526     16.9406
C     12.4231     -3.9349     18.0265
C      8.8429      7.6476      9.7147
H      5.4924      7.3100     14.0819
H     21.1616     10.6579      1.6438
C      8.6159     -0.7366     20.6058
H      9.5907     -6.3661     14.9924
H      9.4150     -2.5080     17.3932
H      6.3674      1.9382     22.4659
C     12.4752      7.1878      7.5520
C     13.3829      3.2733      5.1715
O      7.7007     -7.4463     17.3128
C     11.3593     -4.9155     18.3365
C      6.6161      1.4411     20.2246
C      5.5395      1.9625     19.4805
C     16.5575      0.6076      5.9115
H      7.0615      7.9074      7.4440
H      6.1026     -9.3347     21.1219
H      8.4493      9.9331      9.0247
H     12.6596     -3.5254     19.9773
C     14.8136      4.7031      6.8638
C      3.7291     -7.6980     18.0591
C      3.3113      2.6793     22.1154
H     20.9397      9.6880      2.6643
C      8.3539     -5.5681     11.0574
H      4.1050     -6.9960     21.0196
H     10.9871     -6.9554     11.5580
H      7.2758      2.1954     19.8510
C      4.1093      2.8327     17.6492
C     17.4793      9.6812      5.2092
C      6.7039     -0.1644     21.8562
C      7.9481      9.6360      8.0793
C      5.4726     -8.2208     20.9728
C      6.0049      1.0729     21.5601
H     11.7015      3.5471      8.4392
H     10.3969      0.1903     19.4156
H     19.3290     10.3336      0.3014
H      8.2075     -6.6260     11.5067
H     12.1900      4.1392      6.5560
C     14.2773     -2.8404     13.9039
H      3.1958      4.5029     22.3114
H     10.2148     -3.4575     16.1226
