255

C     19.5879     -4.2771     13.5727
N     -2.3047     10.9074      1.2011
C     17.0535    -11.3885     20.1287
C      2.0852      2.5096      2.1061
C     20.5431     -8.0970     15.0850
H     -3.0687      7.4103      2.4579
C     20.5717     -9.5820     15.8296
C     16.3534     -9.2478     18.4279
C     16.3679     -5.6306     19.5446
C     19.1459    -11.0491     16.9260
C      5.6454     -5.0288      9.3985
C     13.8895     -4.3557     13.3758
N     -0.0030      2.9186      6.4305
C      0.1873      5.7604      0.6279
O     -1.2116      2.6512      0.9783
C     16.1236     -9.0665     19.8363
H      0.2549      5.9119     -0.6147
C     15.7404     -6.8578     17.4235
C     16.2470     -2.5692     16.1837
H      1.5749      0.8167      9.9752
H     -3.4893      3.6550      5.2742
H     17.8673     -6.7260     15.8535
C     16.9536     -4.0508     15.9848
H      4.0691     -5.9749     10.1696
H      5.2656     -4.1555     10.1692
H     -0.6951      5.2596      6.5095
H      7.8019     -9.6548      8.0548
C     15.9730    -10.2573     20.5786
H     19.8520    -11.7367     16.9457
O     14.2058     -2.2076     14.8030
C     -4.8446     12.5062      8.2910
C      6.0067     -7.0619      9.8618
H      2.6416      0.0558      6.3169
H      3.7031     -7.6415      8.2712
C     19.4384     -9.7807     16.3507
H      5.9820     -9.1496      7.3071
H      4.4227     -2.4839      9.3247
H      1.7941      5.6008      9.2340
C     17.0558     -2.1626     17.3724
C     -2.7314      8.6851      4.6236
O      2.4009      8.5828      4.6124
C     -1.4890      8.1386      6.8607
C      8.4449     -4.8339     11.7189
C     20.3611     -5.3538     13.0059
C      6.5390     -6.2652     12.1738
H      5.5040      4.1882      2.0433
H      1.5581     -1.3753      4.8718
H     -3.6108      7.0198      7.4919
H     15.0328     -1.2585     13.2430
C      7.7644    -10.0705      9.0963
H      0.9309      1.5112      2.8187
C      6.9604     -6.3908     10.8108
C     20.7216     -7.3458     16.2137
H     20.8563     -5.4266     14.8979
C     -0.9887      6.8136      5.0483
H     16.4563     -4.6851     21.3227
H      3.9586     -0.4074      2.6221
H     15.3727     -6.4988     13.5686
C     -3.0637     11.2352      7.4942
C      6.1922     -8.3783      9.4039
O      5.5005    -10.2501     10.5991
C     16.1099     -5.4256     17.9375
C      4.4760     -7.5908     12.6727
C     17.6764     -3.9499     15.0670
H     -3.4429      7.9184      4.4394
H     21.2940     -5.2359     16.4075
H     -9.3411     14.5364     10.5600
H     -6.7594     12.3195      9.8955
H     17.6270     -0.1253     17.0438
H     21.5208     -3.0751     13.7093
C     12.9491     -4.2433     12.3100
C      1.6364      1.8332      7.8273
H     -1.4732      8.0253      9.4644
C     -0.6355      6.5769      1.5689
C      9.9473     -5.1940     12.4648
O     15.4274     -2.3642     13.0584
C      6.5890     -4.7388      8.5269
C     17.0247     -4.3922     20.4945
C     -9.3079     14.4197      9.4373
C      2.9974      1.3972      4.8036
H     -2.8084     11.8585      1.2053
H      6.0268     -1.0565      6.8630
H     -9.2044     17.7585      9.7213
C      3.9410      3.1810      3.2075
H     -3.6001      8.8655      7.1157
C     -2.2737      8.6074      0.4572
C     10.9891     -5.6968     11.5983
H     -2.0201     11.0255      5.5579
C     18.1069    -10.7439     18.1559
H      4.4265      0.0308      5.5728
C      2.4652     -0.5578      8.8839
C      4.7391     -1.9021      8.4512
C     -2.0494      5.3590      3.5799
C     16.2811     -3.3934     19.4912
C      2.6209      3.6652      2.6462
C      5.0007     -6.2120      9.5057
H     15.9528     -4.7379     13.5960
H     22.3201     -7.2352     17.0966
H      1.5422      5.2679     -0.9215
O     18.5322     -6.3478     19.3856
C      0.9249      8.0823      4.1721
H      4.1068     -2.0026      7.6288
C     -2.4528      9.1061      3.2389
C     -2.0215      7.7311      2.7720
H      7.0973     -5.3447      7.7039
C     -2.7374      8.4018      7.5688
H     15.3146     -8.9185     18.0684
H     12.5801     -3.2297     10.4441
H      3.7737     -9.0704     13.2130
C      3.1945      1.5787      1.9951
C      0.1591      8.6100      1.7236
O      4.2320     -8.9217     12.4917
C     -0.3084      3.0173      1.8663
C      0.0229      3.7439      4.1543
C      7.3165     -2.5480      7.3380
H     -2.9169      9.9673      7.8829
H     15.1159     -3.3228     19.1937
H     -0.5733      9.8103      4.2883
O      0.2917      9.5845      6.0649
C      6.0124     -1.6827      7.9016
C      0.7270      7.3981      6.4397
C     14.9634     -5.4889     13.7876
C      0.8125      7.6021      2.8642
H     -3.9577     12.7843      8.7723
C      2.5557      0.3097      3.7860
C      0.4112      2.6974      7.9967
C     -2.8865     10.7436      6.1165
C     -2.4401      3.4960      5.1595
C     17.6830     -1.0255     17.7125
C     -9.8107     16.9512     10.0458
C      0.7098      2.1890      1.8597
C     -1.2788      7.8737      1.4778
C      3.8373     -0.5959      8.4861
N      2.3201     -0.7264      4.5046
C      4.3524      1.4073      0.9792
O     17.3514     -7.0231     15.0808
C      9.5781     -6.2778     13.2744
H     18.4236     -3.3574     18.6922
H     -0.5334      2.2172      8.0448
C     -2.4255      4.8560      2.2661
C     -2.5857      8.0681      9.1378
H      7.9878    -11.1532      9.1165
H      1.3336      1.7568      6.8746
H      6.9005     -2.9293      9.5220
C     -2.6925      9.8513      0.4550
H      4.3856     -6.6091      8.6822
H      2.7353      6.8698      9.3903
H     -0.3380      9.7902      1.8063
H     14.1207     -2.4212     11.5202
H      4.8919      0.4028      1.2816
C     15.0595     -5.6513     15.3455
H      4.1693      1.3507     -0.1704
C     13.3034     -3.2824     11.3682
H      4.8511     -9.4140     10.9850
H     15.2442     -2.5783     16.7156
C     17.2441     -4.9008     17.2362
C     20.5503     -5.8838     16.0124
C     20.5388     -3.0166     14.1447
C     18.7141     -4.6101     15.0493
C     17.2592     -6.8518     19.5258
C      2.0733      4.8674      2.1499
C      6.0968     -7.3166     12.9686
C     18.4956     -5.5443     17.2448
C      8.2895     -6.3827     13.5487
C      4.2643     -8.0451      7.4355
C      1.1813      4.9828      0.9084
C     19.2635     -6.2036     18.3492
H     -2.3045      2.7308      4.5085
H     -3.6781      4.8155      2.1775
H      0.9689      1.5580      1.1409
C      7.2920     -7.6947     13.7607
H     -0.8588      3.0888      3.7017
H      8.4279     -3.7702     11.7942
H     19.9316     -1.8855     13.7982
H      0.7510      2.9711      3.7621
H     -1.3426     10.8339      1.4366
H      2.4814      3.8949     -0.5113
H     17.5680     -7.5917     17.0001
C     12.1299     -5.1805     11.5319
H     19.5327     -7.2562     17.9096
C     15.7653     -6.8815     15.8342
H      1.1083      7.3928      9.2110
C     -2.1033      4.8110      4.8486
C      0.5435      7.0825      5.0274
H     18.1943     -4.1282     20.5170
C      1.2598      5.9327      4.6136
H      1.5606     -0.9875      8.5701
H     16.7921     -1.9399     15.2229
H     -0.4827      6.9000      8.2096
C     -4.4386      6.9479      8.2506
C     -8.4457     13.6568      8.3931
C     19.1472     -5.5473     16.0904
C     -3.6792      9.8187      5.2499
C     -0.1763      6.3738      2.9144
C     -1.3935      6.6845      3.7787
H      0.5748      3.6309     -0.4669
H      4.8024     -7.1865     11.6032
H     -2.1544      3.1826      6.3024
C      2.1685      0.9095      8.9962
C      0.5906      5.0605      3.3971
C      5.1958      3.6891      3.1365
H      1.3841      4.4156      7.6423
H      8.3108     -3.6405      8.8483
C      6.8479     -9.3950     10.0881
H      7.5643     -3.1289      6.4696
C      1.8747      6.6326      8.8608
C     -1.6664      5.8427      6.0466
C      3.0114     -0.0252      2.4691
C      1.1469      4.9146      5.6877
C      2.2377      6.4907      7.3262
C      1.6221      4.4493     -0.3695
H     -1.7036      5.5738      2.2124
H      3.8531      1.9044      2.7628
H     -2.4002      9.2164      9.6526
H      5.2375      1.9432      1.2416
H     -5.2888      6.2592      8.2595
H     18.6304    -11.3018     16.0557
C     -0.2980      9.0555      4.9585
C     -3.9301      7.4420      9.4738
H      3.4975     -7.1982     13.0089
H     -3.2894      9.8328      3.0810
C     -4.5435     11.3665      7.5434
H     -2.2465      3.8112      2.1928
H     -4.6490      9.3237      5.4590
H     -6.6503     14.4763      9.4873
C     -0.2599      7.4942      7.3286
C      0.1933      3.9225      5.6264
O     21.4016     -7.7514     17.2294
C     -1.5232      8.2571      5.4354
C     -6.3748     14.3337      7.3349
C     18.2067    -10.7789     19.5291
C      3.6139      0.6627      6.0501
H     -8.4279     16.2901      8.5246
H     18.3388     -0.9761     18.8321
C      2.1229      4.9276      6.9687
H     -0.5202      3.9334      2.3853
C     16.7249     -7.7410     17.7781
C     -9.6168     15.8721      9.0920
H     20.3864     -2.9696     15.2166
C      8.0006     -5.5457     10.4652
H    -10.9842     17.1284     10.2940
H     10.7622     -6.6410     11.1784
H     -6.5388     14.0515      6.4061
C      3.8665      2.5921      4.5931
C     17.2552     -3.2102     18.5321
C     -6.3309     12.4660      8.7958
C      7.1714     -3.4256      8.6771
C      5.3628     -8.7036      8.0922
C     -7.0824     13.7698      8.5222
H     -3.5901     10.1488      0.0451
H     19.0793     -3.7210     12.8964
H     10.3260     -7.0281     13.5721
C     14.5731     -2.9590     13.8180
H     -9.8389     16.3932     11.1088
H     -1.5842      9.7359      2.8822
