257

C     19.8762      8.4819     13.8628
N     -2.2378     10.7956      1.3548
C      3.9743      1.6897      7.0751
C      2.4559      2.3961      2.2439
C      7.2301      4.6548      2.0222
H     -3.1807      7.1592      2.7232
C      7.9071      3.4995      2.6463
C      3.1232      4.0214      5.2781
C     16.2308      6.8836     19.6796
C      6.0583      1.8581      4.0976
C     -7.4507      8.2885      9.3478
C     13.6443      8.5183     13.6718
N      0.2772      2.7902      6.3338
C     -0.0795      5.8161      0.4997
O     -1.2158      2.6222      1.0907
C      3.0516      3.9866      6.7140
H     -0.4673      6.3069     -0.2500
C     15.7410      6.2429     17.2315
C     16.2377     10.2090     16.5104
H    -11.8662     14.0993      9.7706
H     -3.4860      3.4197      4.4721
H     17.6935      5.9346     15.4605
C     16.8878      8.8939     16.2170
H     -8.7799      6.6699     10.1967
H     -7.3853      8.8402     10.4215
H     -1.4097      5.8643      6.7519
H      7.7389      2.9483      7.8941
C      2.8988      2.8308      7.4424
H      7.0074      1.7933      4.9398
O     14.3255     10.3522     14.8502
C     -4.9192     12.5154      8.2386
C      6.0313      5.8553      9.7479
H      2.6173      0.0347      6.7789
H      3.9405      5.2551      8.3902
C      6.6375      3.2086      3.3720
H      5.9370      2.9572      7.9059
H     -7.9160     10.5491      8.8792
H      1.7952      5.6306      9.3477
C     17.2883     10.7074     17.5989
C     -2.8732      8.7377      4.8676
O      1.9687      8.5491      4.9312
C     -1.5272      8.2353      6.8703
C      8.3969      8.1150     11.8978
C     20.3869      7.6125     12.8515
C      6.1768      6.6675     -0.9593
H      5.5897      4.5458      1.8736
H     17.5939      9.7049     14.5252
H      2.7152     -1.0687      5.0163
H     -2.8537      6.3827      7.7001
H     16.2376     11.1910     13.3725
C      7.8055      2.7224      9.0599
H      0.4588      0.9707      2.0900
C      6.9965      6.4960     10.6847
C      7.9526      5.6565      3.0934
H      8.5706      7.1652      1.8814
C     -0.9219      6.9163      5.0254
H     16.1860      9.2695     21.6109
H      2.9817     -0.6727      1.9269
H     14.6767      6.2392     13.3966
C     -3.2175     11.0366      7.2513
C      6.1528      4.5920      9.1694
O      5.7289      2.8082     10.4511
C     16.0788      7.3905     18.0950
C      4.8092      5.1121     -0.5449
C     17.8290      9.0006     15.1345
H     -3.3081      7.7745      5.3011
H      8.3091      7.3106      4.0270
H     -9.4263     14.6125     10.5843
H     -6.2154     12.1826      9.5026
H     17.6989     12.4056     16.7302
H     21.5513      9.4391     14.7690
C     12.7624      8.6315     12.1888
C      1.7862      1.8798      7.7078
H     -1.5126      7.5880      9.1155
C     -0.9007      6.3690      1.5245
H      5.3026      7.3633     -0.9824
C      9.8006      7.6229     12.3790
O     15.4837     10.6476     12.9611
C     -6.5343      8.5536      8.3920
C     16.5709      8.5437     20.4862
C     -9.6645     14.6246      9.5201
C      2.6871      1.4962      4.8696
H     -2.8473     10.7686      2.2301
H     -7.0308     11.8132      6.3545
H     -9.7937     18.1190      9.9078
C      4.1650      3.5495      3.3728
H     -3.6677      8.2853      7.3580
C     -2.2866      8.5887      0.4072
C     10.8772      7.1725     11.4289
H     -1.7206     10.3945      6.0989
C      5.1195      2.1926      5.0310
H      3.8802     -0.1722      6.0574
C    -10.6141     12.5099      8.8696
C     -8.3716     11.1666      8.0432
C     -2.2132      5.3801      3.7268
C     16.5223      9.4504     19.4292
C      2.7889      3.6458      2.7798
C     -8.0137      6.9537      9.3219
H     15.4955      8.4689     13.2244
H     -3.4648      5.0762      4.1140
H      2.4245      4.7686     -1.0162
O      5.7417      6.5059      6.5889
C      0.7945      8.2925      4.4051
H     -9.2298     10.2796      8.0624
C     -2.7186      8.9654      3.4753
C     -2.2111      7.5652      2.8069
H     -6.5756      8.0391      7.3433
C     -2.5865      8.5434      7.7166
H      2.2381      4.1170      4.5772
H     13.2279     10.2609     10.6434
H      4.8642      3.6920      0.6294
C      3.5652      1.4539      2.0899
C     -0.1949      8.4728      1.9609
O      4.0950      3.8117     -0.0471
C     -0.0633      3.0880      1.6804
C      0.3416      3.8996      3.9774
C     -5.7922     10.4793      7.5523
H     16.0924     10.4862     19.2571
H     -0.9303      9.6232      4.1687
H     13.2180      7.4968     10.8585
O      0.4697      9.7668      6.0405
C     -6.8374     11.5558      7.4274
C      0.9203      7.2315      6.8076
C     14.9050      7.5453     13.5479
C      0.6557      7.5522      2.8949
H     -4.5019     13.4164      8.6085
C      2.6925      0.2253      3.9495
C      0.5275      2.4729      8.0047
C     -2.7225     10.9795      5.9009
C     -2.6404      3.4215      5.2273
C     17.8817     11.9293     17.7371
C     -9.7204     17.0586     10.1570
C      1.1340      1.8960      1.7190
C     -1.4879      7.8197      1.6097
C     -9.2191     12.2253      8.6473
N      2.2746     -0.9406      4.2433
C      4.4262      1.3533      0.8087
O     16.8482      5.9180     14.9681
C      9.4314      6.5225      0.4689
H     18.6251      9.4526     19.0096
H     -0.0151      1.6660      8.3441
C     -2.3677      4.8447      2.3488
C     -2.4570      8.3987      9.0753
H      8.2510      1.8596      9.1489
H      1.7046      0.8684      7.2970
H     -6.2549     10.0264      9.6653
C     -2.7513      9.8537      0.3694
H     -8.4929      6.9933      8.4122
H      2.6449      7.1872      9.1900
H     -0.0527      9.4443      2.3881
H     14.0226     10.1958     12.0409
H      4.9194      0.4402      0.8018
C     15.1311      7.3684     15.0220
H      3.9754      1.6602      0.0922
C     13.2692      9.7561     11.5694
H      5.3510      2.9091     11.3649
H     15.1593     10.2019     16.4222
C      4.3527      8.0327      4.3702
C      7.9889      7.2369      2.8852
C     20.3997      9.7938     14.2237
C     18.7945      8.1532     15.0846
C      4.3531      5.8580      6.4412
C      1.7758      5.0146      2.6092
C      6.0885      5.4420     -0.0554
C      5.6416      7.1208      4.0895
C      8.0923      6.5056      0.5844
C      4.3311      4.6805      7.6900
C      1.2261      5.1509      0.8642
C      6.3831      6.6813      5.3730
H     -1.6089      2.8841      4.6996
H     -3.6343      4.6705      2.3525
H      1.2304      1.8259      0.6357
C      7.2544      5.4862      0.9337
H     -0.5934      3.4919      3.5354
H      8.2714      9.0934     11.3414
H     20.6321     10.0072     13.3160
H      1.0356      3.0602      3.7293
H     -1.1730     10.6552      1.8044
H      1.8915      3.3205     -0.0159
H      5.0930      4.9100      4.6987
C     12.1592      7.5088     11.2694
H      6.9801      5.7814      5.1883
C     15.7646      6.2098     15.5343
H      0.7927      6.8820      8.9671
C     -2.0913      4.7855      5.0090
C      0.5648      6.8639      5.2464
H     17.7481      8.1771     20.2683
C      1.4372      5.7623      4.6727
H    -10.8488     12.0594      9.7095
H      1.9194      0.5721      1.9599
H     16.3398     10.7556     15.5563
H     -0.3450      7.6979      8.5405
C     -3.9747      6.5133      8.3332
C     -8.6072     13.9426      8.5424
C      6.5031      7.3136      3.0537
C     -3.5181      9.9289      5.4355
C     -0.1571      6.3501      2.7819
C     -1.3514      6.7349      3.6828
H      0.7539      4.3414     -0.7882
H      4.5519      5.4763     -1.4546
H     -2.7568      3.1527      6.4069
C    -10.8666     14.0169      9.0152
C      0.7679      5.2110      3.5011
C      5.3899      3.8556      2.7708
H      1.3742      4.5281      7.9124
H     -4.5927      9.4552      9.3281
C      6.8660      3.3271      9.9420
H     -5.9932      9.8691      6.5323
C      1.9347      6.5297      8.8031
C     -1.5988      5.7829      5.7851
C      2.7310      0.3127      2.4702
C      1.0653      4.9446      5.8658
C      1.9394      6.4836      7.3018
C      1.5764      4.3134     -0.2296
H     -2.6083      5.2064      1.3178
H      4.3551      1.5865      2.9216
H     -2.0814      9.2885      9.6960
H      4.7498      2.3060      0.9647
H     -4.9474      6.1662      8.5170
H      6.0633      0.7554      3.8956
C     -0.1590      9.3035      4.8104
C     -3.8366      7.4089      9.3574
H      4.4603      5.7720      0.0546
H     -3.6917      9.0562      2.8244
C     -4.5906     11.3311      7.5658
H     -2.3755      3.7205      2.4480
H     -4.5733     10.1924      5.1435
C     -0.3266      7.5871      7.3310
C      0.3756      3.8346      5.3947
O      8.3013      5.0733      4.1531
C     -1.4480      8.3368      5.4336
C     -6.4863     14.2430      7.1029
C      5.3013      1.9711      6.2696
C      3.1350      0.8633      6.2151
H     -5.4116     14.3832      6.9407
H     18.9396     11.7812     17.9552
C      1.8394      5.0692      7.0091
H     -0.2625      4.3825      1.2815
C      3.9945      5.2853      5.2171
C     -9.4438     16.0469      9.0834
H     19.6329     10.2911     14.7855
C      8.0770      7.2845     10.4656
H    -10.5984     16.5536     10.5604
H     10.5403      6.4540     10.8314
H     -6.8857     13.2229      6.9301
C      3.8278      2.6403      4.6459
C     17.4748      9.5720     18.5424
C     -6.2400     12.3986      8.4760
C     -5.5570      9.5783      8.8603
C      5.4104      3.9735      8.2642
C     -6.8109     13.8006      8.6312
H     -3.0640     10.3927     -0.4845
H     18.7251      8.7847     13.3517
H      9.7841      5.6151      0.4672
C     14.5927      9.8530     13.7843
H     -8.7319     17.1177     10.3791
H     -2.2579      9.8811      3.4020
