265

C     19.5797      9.2940     13.8102
C      3.8651      1.6210      7.2341
C     15.9456      2.9832     14.0961
C      7.1002      4.8162      2.3081
H      9.6355      3.3465     15.6181
C      7.3377      3.4334      2.7055
C      3.3013      4.2806      5.4446
C      6.6953      9.6311     10.8631
C     15.8018      7.2104     19.3417
C      6.3066      1.9953      4.3990
C      6.2605      8.5068     10.0917
C     13.6927      8.7492     13.7485
N     -0.3160      3.1376      6.2257
C     13.7944      5.8513     13.3499
C      3.1961      4.1155      6.8256
C     15.5889      6.2793     17.3205
C     16.7159     10.8096     16.2927
H      1.4785      0.3137     10.6179
H     10.8960      2.2986     18.6725
H      5.7645     11.2465     11.9120
C     16.6336      9.3174     16.1392
H      7.6657      9.4899     10.5952
H      7.7387      3.5346      3.8205
H     12.7330      6.6910     11.0771
H     11.1757      4.7251     19.7274
C      2.9226      2.6841      7.6014
H      9.8296     10.3113     13.7055
H      7.3174      1.8000      4.4618
O     14.2123     10.8574     15.0516
C      7.9042     -0.0595      8.8119
C      7.0564      6.0811      9.8352
H     15.1763     -7.7822      9.0031
C      6.2973      2.2368      3.0196
H      6.3822      4.0729      7.4552
H      6.6773      9.5593     12.1497
H      4.6828     -2.7939      8.4870
H      5.1266      7.8570      8.8172
C     17.5244     10.9842     17.6460
C      9.9372     -4.3321      4.9249
O     14.8452      8.5223     17.7313
C     11.1960     -5.2632      6.9472
C      8.6826      8.2972     12.4316
C     20.2365      8.0000     13.1550
C      6.2013      7.5448     12.2699
H      5.0427      3.9401      1.8036
H      3.1337     -0.5252      5.0296
H      8.5898     -7.4755      8.4999
C      6.7680      7.2302     10.7492
C      7.3436      5.8988      3.2950
H     21.4828      9.0814     14.4376
C     11.7163      6.5411     17.8907
H     14.9973      8.8602     20.0639
H      4.6175      0.2380      2.7182
H      5.6941     11.7101     10.4609
C      9.6744     -0.8056      6.9843
C      5.7619      5.3257      9.3930
O      5.3180      3.1294     10.4128
C     15.7965      7.7718     17.9249
C      4.3482      6.1260     13.2083
C     17.3872      9.3487     14.8075
H      9.1213     -5.0095      5.4004
H      8.0277      7.8843      3.1680
H      4.0081      1.3296     10.4114
H      6.5761     -0.3179     10.0576
H     18.5679     12.8687     17.6113
C      0.0188      3.0390      8.7721
C     13.1354      8.1385     12.4233
C      1.4773      1.9859      7.3721
C     12.5846      6.2575     14.2359
H      5.4138      8.3675     11.9868
H      9.7969      3.6035     19.0822
H      5.9536      4.1679      4.2034
H      5.0347     10.0376     11.0381
C      9.8833      7.7722     13.0354
O     14.9660     10.8466     13.1195
C      6.7725      8.5942      8.6114
C     16.0179      8.5901     20.1205
C      3.2957      1.3646      9.4525
C      3.6497      1.5964      4.8759
H     11.4129     10.4463     14.4315
H      6.0293     -0.5645      6.9831
C      4.0871      3.3506      3.3995
H      8.9031     -3.0337      5.9228
C     11.0682      8.6675     13.6437
C     10.7623      6.9879     12.0365
H     11.3078     -2.1273      7.0536
C      5.6560      2.8540      5.3840
H     17.7657     11.9906     19.1825
H      8.0005      1.1240      8.7619
C      2.7730     -0.7299      8.9896
C      4.7478     -1.6514      8.0861
C     10.7635      4.9494     16.4963
C     16.5927      9.9577     19.2490
C     15.9948      3.8235     15.5531
C      4.9382      8.3210      9.7062
H      2.0485     -1.4868      8.5527
H     16.6421      9.0449     13.8887
H      9.9108      5.2216     15.1015
H     15.3895      3.7313     12.1520
O      5.5110      6.9234      6.5121
C     13.5544      7.9540     17.5234
H     17.1975     10.6111     19.9500
C     10.4368     -4.3295      3.5616
C     10.8694     -5.4966      2.8342
H      5.7553      8.7699      8.1440
C     10.1032     -5.5030      7.6743
H      0.8640      2.3427      4.9908
H     15.1672      7.5108     12.0540
H      6.6709      1.4538      2.1668
H      1.0280      3.2249      8.7725
C     16.6508      1.6720     14.1198
C     12.9069      8.5616     15.0999
O      6.7005      4.5045     11.5068
C     12.7355      3.8833     17.0811
C      7.2704     -1.8200      7.2775
H      1.5528     -0.2152      4.8016
H      9.0552     -5.6574      7.3855
H     15.8445     10.6247     18.8717
H     13.7572      5.7590     12.3850
O     12.8592     -3.3284      6.5464
C      6.1373     -1.1018      7.9663
C     13.5191     -6.1369      6.6774
C     15.1550      8.0443     13.9973
H     15.4135      9.1632     15.8697
C     13.5046      7.5401     15.9436
H      8.4658     -0.5176      9.6397
C      2.9418      1.2068      3.5645
C      0.2032      2.7107      7.3831
C     10.4915     -1.7678      6.0598
C     10.2977      3.3648     18.1723
C     18.0850     12.0218     18.1995
C      2.9407      3.6711      9.8604
C     11.8496      7.7131     14.5041
C      4.1211     -0.5064      8.4153
N      2.2948      0.0854      4.1016
H     16.3230      2.3517     12.4007
C     16.4981      1.2604     12.7942
O     17.2716      6.3661     15.3033
C      9.1404      6.9243      1.0036
H     18.8918      9.3292     18.7014
H      1.5738      1.0653      7.9047
C      9.9215      4.4615     15.6615
C     10.2650     -5.4273      9.0721
H      1.4206      1.2953      6.2258
H      7.5270      4.8458      0.0797
H      8.1617      8.9194      7.0284
C     10.8844      9.9566     13.7908
H      4.6665      9.1235      9.0689
H     15.8367     -6.2437      8.9028
H     10.1964      5.1892     18.5893
H     11.9621     -2.9945      4.9178
H     14.6740      7.8807     10.6583
H     15.7015      0.7219     12.1647
H     -0.2481      2.0660      9.0834
C     14.8966      7.4875     15.2360
H      4.9715      6.1871      9.4131
C     14.5149      8.2806     11.7175
C      5.7418     10.7738     10.9238
H      3.4144      3.2924     11.0133
H     15.6392     11.4582     16.2563
C      4.1476      8.5023      4.3148
C      7.2704      7.2041      2.6736
C     20.8719      9.9077     14.7034
C     18.4642      8.8178     14.9393
C      4.1818      6.2580      6.2773
C     14.9215      4.9062     15.5248
C      5.6439      6.3873     13.1314
C      5.3048      7.7338      4.0467
C      7.6167      6.8407      1.1451
C      4.3600      5.1584      7.2064
C     14.7091      4.8967     14.0917
H      7.0218      5.9764      4.8894
C      5.9838      7.5369      5.4008
H      9.5369      6.1044      1.4435
C      7.0002      5.4482      0.9651
H     12.4254      3.0807     16.3560
H     11.1190     -4.7893      9.6317
O      7.1992      7.7234      5.6527
H      8.5900      9.3703     12.3469
H      2.4285      2.4133      3.2364
H     12.7918      9.6609     14.9873
H      4.1139      5.2248     13.6920
H      4.7298      5.1285      4.3884
C     12.0450      7.3920     11.7574
C     15.7657      6.2513     15.8854
H     14.0302     -6.0078      8.9649
C     11.3584      4.1348     17.5440
C     13.3004      6.6193     18.1689
H      4.2631      7.7633     10.5170
H      2.8088      0.0961      6.1431
C      1.3848      5.4287      4.6094
H      3.0116     -0.2137      2.2374
H     16.9395     11.1631     15.4147
H     12.1947     -6.2974      8.7477
C      8.0771     -6.5930      9.1147
C      4.3401      0.8638      8.5150
O      5.9926      4.1575      5.2274
C      6.1155      7.9704      3.0407
C      9.8550     -2.7142      5.1825
C     12.9549      6.1260     15.7656
C     11.5142      6.3244     16.5144
H     16.4532      8.2141     21.0067
H     15.0015      9.3686     12.1357
H      9.5113      3.5179     17.5968
C      2.3090      0.3485      9.8004
C     13.5364      5.0087     16.2927
C      5.1247      3.0821      2.5738
H     14.3839     -9.0193      7.5515
H      8.1004     -4.3778      9.4096
C      5.9362      4.2046     10.5196
H     10.7046     -0.8289      7.7332
H     14.6134     10.5615     15.8988
H      6.9384     -1.6982      6.2189
C     14.8834     -6.6377      8.6055
C     11.1491      5.3434     18.6872
C      3.6317      0.7080      2.3934
C      1.7128      4.2781      5.4262
C     14.7847     -6.7036      7.0136
C     15.3504      3.9440     13.3276
H     11.8074      5.6136     13.8154
H     17.9802      1.7461     14.2455
H     17.4907      0.9595     12.3480
H     11.0887     -1.0218      5.4664
H      5.6973      0.9870      4.4580
C     12.3766     -3.9082      5.3251
C      8.8271     -5.2161      9.5763
H     17.6801      6.6866     14.4596
H     21.0763     10.6315     13.9850
C      8.3509     -0.9349      7.4633
H      9.3335      7.4956      1.9602
H      9.9894     -2.2065      4.2225
H      5.9963      2.0343      9.2321
C     12.5183     -6.0304      7.5299
C      0.6655      3.4560      5.1703
O      7.7898      5.7058      4.5264
C     11.2362     -5.0289      5.6039
C      6.2669      1.5882      7.3222
C      5.3110      2.1883      6.7385
C      3.5361      0.9150      6.1076
H      6.7776      7.6195      7.9626
H      4.9128      3.5361      8.5441
H      9.0364      9.6752      8.4531
H     12.8217     -3.8302      7.5104
C     14.6522     -8.1571      6.8064
C      3.8659      5.5703      4.9980
C      2.6832      2.5936      9.0880
H     20.6527     10.0173     15.7577
C      8.2873      7.4511     11.1518
H      3.9273      5.5162      8.2650
H     10.4197      6.1447     11.2913
H      7.2341      1.5210      7.0698
C      4.2477      2.8945      4.7431
C     17.7567      9.5773     18.2647
C      6.4992     -0.1990      9.0047
C      7.9117      9.3670      8.1216
C      5.5496      4.3662      8.1332
C      5.8201      1.2083      8.5823
H     -0.7729      3.8467      8.6559
H      9.7250      0.0178      6.1633
H     18.7026      9.7930     13.3280
H      8.6528      6.4699     11.5947
H     -1.2406      3.3165      5.8132
C     14.2997     10.0817     13.9085
H      2.9817      4.8886      9.7799
H     10.8069     -3.5370      3.1804
