262

C     19.9125      8.9024     13.6975
C      4.1354      1.5068      7.1778
C      2.0459      2.9034      1.4067
C      7.1823      4.6164      2.0841
H     -2.9132      4.1008      2.5828
C      7.2543      3.2755      2.1770
C      3.5943      4.0153      5.4549
C     -5.9646      9.5933     10.2675
C     15.9281      7.3150     19.4543
C      6.0109      1.6423      3.9379
C     -7.0726      8.8827      9.6800
C     13.9876      8.7118     13.7868
N      0.1279      2.6876      6.5867
C      0.3294      5.8715      0.8232
O     -1.7554      2.4181      1.4313
C      3.4167      4.0448      7.0019
C     15.4831      6.2680     17.4561
C     16.3922     10.7202     16.6491
H    -11.5116     14.5830      9.7311
H     -3.4292      3.6873      3.8555
H     17.2248      6.8555     14.7263
C     16.8823      9.1877     16.2716
H     -5.2877     10.1321      9.6834
H      7.8517      3.2223      3.3244
H     13.0608      8.0370     10.7041
H     -0.9515      5.0590      6.6456
C      3.5496      2.7451      7.7583
H     -2.0818     10.3039     -0.9089
H      6.9135      0.8187      3.9419
O     14.8501     10.6729     14.7473
C     -4.8112     12.5271      8.7491
C      6.6655      6.0962      9.4467
H      2.2288      6.0436      9.0955
C      6.1241      2.4300      2.5535
H      5.9758      5.2509      6.8108
H     -5.7917      9.2563     11.3571
H     -8.4693     10.4521      8.6098
C     17.5217     10.9210     17.7672
C     -2.7729      8.3312      5.0889
O      1.6698      8.8426      4.9738
C     -1.7859      7.8955      7.2324
C      8.6128      8.0785     11.8854
C     20.3880      7.7465     12.9175
C      6.3670      7.0423     -0.8921
H      4.7977      3.7122      1.7394
H     18.2581     10.2703     15.3847
H      1.6515     -0.5638      2.8939
H     -5.2899      6.0606      7.4975
C      7.0848      6.4541     10.8960
C      7.5866      5.6118      3.0373
H     21.9660      9.0460     14.8233
C     -1.1014      6.7048      5.1523
H     15.2959      9.0616     20.7235
H      3.9141      0.1251      1.7118
H     15.3607      6.9366     13.7476
C     -3.0873     11.5394      7.4106
C      5.7490      5.1759      9.1896
C     15.6390      7.7445     18.0242
C      4.4949      5.7063      0.4384
C     17.8720      9.3401     15.1752
H     -3.3694      7.3651      5.0924
H      8.3595      7.4988      3.0611
H     -9.1852     13.9342     10.5651
H     -6.8118     12.4532      9.9129
H     18.1397     12.9643     17.2593
C      0.1819      3.6454      8.9665
C     13.5862      8.1339     12.4517
C      1.9607      1.7217      7.9366
C     -0.7912      6.5706      1.5604
H      5.5758      7.7753     -0.6632
H     -2.3244      2.4968      4.2232
C     10.1269      7.6975     12.6812
O     13.9014     11.0429     12.7274
C     -6.7975      8.7083      8.3886
C     16.2473      8.7073     20.3319
C     -9.3453     14.3750      9.6270
C      2.9925      1.5254      4.9854
H     -0.5503     10.3585     -0.0798
H     -7.0268     12.2598      6.9964
C      3.6121      3.1921      3.4406
H     -4.2422      9.4543      6.4345
C     -1.9099      8.6639      0.5445
C     11.2054      7.1056     11.8344
C      5.3607      2.2322      5.1175
H      3.9674     -0.1125      5.9711
H     -4.4646     13.5370      8.9311
C    -10.3615     12.5576      9.1188
C     -8.2243     11.4557      8.0376
C     -2.2388      5.5862      3.5455
C     16.7064      9.6171     19.3684
C      2.1916      3.6378      2.9871
C     -8.0258      7.7657     10.1528
H    -10.2543     12.1957     10.0438
H     15.9040      8.5844     14.0612
H     -4.1697      5.1439      2.0043
H      2.2101      4.0997     -0.3574
O      5.2219      6.8845      6.5547
C      0.4958      8.2025      4.6263
H     16.6986     10.7414     19.8066
C     -2.7617      8.7958      3.6335
C     -1.8597      7.9706      3.1087
H     -7.5219      8.0333      8.0766
C     -2.9681      7.4301      7.5749
H      1.8932      1.6272      5.3685
H     14.0225      8.3208     10.5603
H      6.0381      1.5276      1.8054
H      0.5031      4.7600      9.0500
C      3.1202      1.7988      1.0625
C      0.0185      8.6926      2.0409
C     -0.7017      3.2679      1.5981
C     -0.2228      4.0320      4.2334
C     -5.5846     10.7736      7.1811
H      2.4798     -0.3566      4.6345
H     -3.8918      7.1312      7.3075
H     15.8937     10.0926     18.8936
H      0.4020      6.0349     -0.2063
O      0.1909      9.8045      6.1115
C     -6.7122     11.5699      7.8003
C      0.5495      7.2061      6.9304
C     15.1343      7.9159     14.3293
H     15.6077      8.5504     15.8643
C      0.5973      7.7698      3.1311
H     -4.2940     11.9711      9.7007
C      2.7096      0.8462      3.6061
C      0.5025      2.5542      7.9571
C     -2.4841     10.3569      6.7187
C     -2.6277      3.3918      4.5968
C     18.4793     11.8236     17.9808
C     -9.8448     16.9375      9.9451
C      0.6008      2.5145      1.0896
C     -1.2111      8.0487      1.5796
C     -8.9149     12.4148      8.5148
N      1.9965     -0.2016      3.7651
H      4.0583      2.2332     -0.5610
C      3.3871      1.5318     -0.4239
O     17.0169      6.4265     15.5253
C      9.4322      6.8160      0.8644
H     18.6859      9.4584     19.1248
H     -0.1158      1.6123      8.2766
C     -3.1015      5.1564      2.5757
C     -3.0303      7.5278      9.0828
H      1.9652      1.1043      7.1056
H      7.3579      4.6981     -0.0089
H     -6.1032      8.8731      6.5475
C     -1.5490      9.8771      0.0129
H     -9.0040      7.9221      9.6321
H      2.1313      7.8953      9.1682
H     -1.0241      9.6108      4.2773
H     15.3522      9.1595     11.3740
H      2.3559      1.2527     -0.8563
H     -0.3984      2.9475      9.6076
C     14.9471      7.5994     15.6481
H      4.7147      4.9668      9.2787
C     14.4786      8.4803     11.4427
H    -10.0631     16.9808     11.1186
H     15.5862     10.9089     17.1005
C      4.6168      8.4984      4.3794
C      7.5256      6.9173      2.4671
C     21.1011      9.5517     14.4505
C     18.9782      8.5542     14.8919
C      3.9317      6.1677      6.4180
C      1.7776      5.1203      2.7534
C      5.8609      6.0738      0.0538
C      5.5997      7.3629      4.2121
C      7.8553      6.7063      1.0402
C      4.1844      5.2300      7.4913
C      1.4600      5.2821      1.2938
H     -2.7940      5.2424      6.1215
C      6.0407      7.2143      5.4553
H      9.7449      5.9542      0.2703
H      0.5333      1.4624      1.6128
C      7.0107      5.5746      0.7126
H     -0.3859      3.0960      3.2674
H     -2.2290      6.7710      9.5340
O      7.4839      7.0169      5.8574
H      8.6967      9.2755     12.1321
H      1.5615      2.8774      3.4993
H     -0.0708      9.7578      2.3300
H      3.2612      3.9678      0.9445
H      4.2503      5.7758      4.1457
C     12.5368      7.5706     11.5806
C     15.6382      6.1674     15.9933
H      0.6193      6.5767      9.0062
C     -1.6364      4.4168      4.5726
C      0.2694      7.0960      5.4606
H     -8.4815      7.7624     11.0914
H      2.7774     -0.0293      6.9774
C      1.0362      5.8303      4.8495
H      2.2205     -0.2813      1.7054
H     16.5163     11.6923     16.0868
C     -5.1021      6.3222      8.5489
C     -8.5207     13.7524      8.5764
C      6.2212      7.4408      2.8482
C     -3.3741      9.6271      5.8738
C     -0.1921      6.4471      3.0435
C     -1.4895      6.7940      3.7014
H     16.8795      8.5549     21.1729
H      3.8000      5.4742     -0.3722
H     -2.9531      3.0008      5.7121
C    -10.6685     13.9104      9.2135
C      0.4984      5.2302      3.6238
C      4.6584      3.1957      2.6242
H      1.4213      4.7006      7.7780
H     -2.1078     11.9904      7.7284
H     -5.7514     10.6743      5.9284
C      1.7459      6.9033      8.8456
C     -1.7397      5.4100      5.9068
C      2.9536      0.7800      1.9504
C      1.3814      4.7418      5.9605
C      1.8300      6.8094      7.1814
C      2.3127      4.2046      0.7299
H     -1.6996      5.5279      1.4902
H      4.1697      2.2903      1.4534
H      3.7117      0.4198     -0.1152
H     -1.6621     11.2193      6.1920
H      4.8835      1.2739      3.4218
C     -0.5284      9.1716      5.2169
C     -4.1628      6.9688      9.4821
H      4.0151      5.1104      1.2445
H     21.5256     10.1732     13.5865
C     -4.4305     11.5990      7.5698
H     10.1132      6.8171      1.8106
H     -3.7330     10.2200      5.0977
H     -6.6776     14.2319      9.8178
C     -0.3311      7.4072      7.8193
C      0.5537      3.7631      5.6310
O      7.8796      5.4466      4.2021
C     -1.6338      8.1669      5.6689
C     -6.3207     14.8559      7.7180
C      5.4817      2.0147      6.4839
C      3.5035      0.5754      6.3078
H      8.1068      7.8161      5.7004
H     -5.7991     15.7634      7.7453
H      5.5790      3.4213      8.2646
H     -4.7230      8.9705      7.9697
H      1.1982      9.3859      6.1821
H     19.3672     11.9001     18.4197
H    -11.2574     11.9475      8.5265
C      1.9521      5.2285      7.0729
H     -0.6705      4.1870      1.1886
C      3.6395      5.4555      5.1244
C     -9.4023     15.7907      9.2044
H     20.9160     10.3623     15.1304
C      8.1885      7.2459     10.8182
H      3.5385      5.5648      8.3561
H     10.8095      6.9408     10.8189
H     -5.4653     14.3374      7.3129
C      3.9217      2.6708      4.8267
C     17.8384      9.6680     18.5076
C     -6.3630     12.6349      8.8728
C     -5.7079      9.2864      7.4711
C      5.6096      4.6617      7.8985
C     -6.7846     14.0313      8.7237
H     -0.5358      4.1119      8.0843
H     -2.7915      8.7697      9.3189
H      0.5189      2.4668     -0.0049
H     19.5902      9.7611     12.9810
H      7.5945      5.4039     11.1213
H     -0.7779      2.1188      6.4024
C     14.1975     10.1767     13.7413
H    -10.4375     17.6821      9.4449
H     -2.9189     10.0633      3.4428
262

C      6.7553      9.0133     13.6929
C      4.1889      1.5075      7.1147
C      1.9909      2.9630      1.5678
C      6.7268      4.8503      2.1713
H     -2.4451      4.0786      2.3246
C      7.0264      3.4629      2.5418
C      3.4772      3.9582      5.5509
C      6.9450     -3.4197     10.3837
C      3.0104      7.3405     19.5358
C      6.2669      1.8855      4.1399
C      5.8565     -3.8686      9.4232
C      1.2355      8.7577     13.7531
N      0.3384      2.8993      6.5189
C     13.4642     -6.9855      0.6742
O     -1.6892      2.4565      1.6575
C      3.5290      3.9009      6.9352
C      2.5885      6.2819     17.5161
C      3.6582     10.6959     16.8662
H      1.2221      0.3294      9.4462
H     -3.6707      3.8277      4.0887
H      3.7000      7.0087     14.6166
C      3.8660      9.3873     16.2841
H      7.6127     -2.7646      9.9766
H      7.7903      3.2670      3.2940
H     -0.2183      7.4389     10.9783
H     -0.7769      4.8782      6.5465
C      3.2459      2.8508      7.7857
H     10.7957     -2.6804     -0.5389
H      7.0985      1.2228      3.8776
O      1.9716     10.7916     14.7136
C      8.1913     -0.1872      8.6014
C     -6.1220      5.9323      9.4660
H      2.2756      6.4568      9.6250
C      5.9279      2.3974      2.7483
H     -6.4685      4.8917      7.0830
H      6.9652     -3.8116     11.4105
H      4.4413     -2.5541      8.2528
H      5.4660     -5.8349      9.9491
C      4.6876     10.8986     17.7923
C      9.9652     -4.6525      5.1626
O     14.7473     -4.2452      4.9363
C     -1.6388      7.9841      7.3059
C     -4.0968      8.0242     11.9085
C      7.5050      7.8214     12.8464
C      6.4254      6.8484     -0.8666
H      4.7156      3.8250      1.8073
H      5.3149     10.2213     14.6308
H      1.7162     -1.0307      2.7406
H     -5.0313      5.9203      7.6147
C     -5.7016      6.3648     10.9654
C      7.6242      5.5374      3.1210
H      8.8220      8.5779     14.4727
C     -1.1931      6.6732      5.2268
H      2.5089      8.5725     21.0293
H      4.1789      0.1210      1.9283
H      2.4344      7.0884     13.4887
C      9.8309     -1.3381      7.2998
C     -7.3025      5.2451      9.2054
C      2.8965      7.7658     17.9281
C      4.6793      5.6853      0.4082
C      4.7463      9.4979     15.1112
H      9.5665     -5.5469      4.9206
H      8.5796      7.5281      3.1618
H      3.3410      1.0757     10.6465
H      6.3836     -0.9084      9.6353
H      6.0541     12.3983     17.2298
C      0.1787      3.7088      8.9038
C      0.6378      8.2859     12.2890
C      1.9623      1.9129      7.8839
C     12.1714     -6.5295      1.6031
H      5.5267      7.7158     -1.0592
H     -2.3122      2.8064      4.0316
C     -3.0244      7.7081     12.8548
O      0.8541     10.7616     12.6157
C      5.9780     -4.0451      8.0894
C      3.4040      8.4491     20.3555
C      3.3418      1.5250      9.7050
C      3.1883      1.4316      4.9274
H     12.3881     -3.2340      0.0176
H      5.8686     -0.5669      6.8157
C      3.5257      3.3018      3.4887
H      9.2024     -3.8062      6.5948
C     10.9156     -4.3339      0.6256
C     -1.8008      7.0959     11.9483
H     10.7007     -3.1603      7.7700
C      5.2439      2.2718      5.1447
H      4.4108     -0.1407      5.6989
H      8.0796      0.9314      8.7107
C      2.6623     -0.3975      8.8828
C      4.6878     -1.5608      7.9675
C     -2.2551      5.4582      3.4495
C      3.7198      9.7059     19.5564
C      2.0871      3.5152      2.9815
C      4.8853     -5.0041      9.9498
H      2.5586     -0.6996      9.8151
H      3.5236      8.1794     13.9046
H     14.8809     -9.0357     -0.5078
O      5.3926      6.7354      6.5427
C     13.4312     -4.6745      4.6054
H      3.8627     10.7029     19.9789
C     10.2844     -4.1325      3.6205
C     10.9565     -5.0754      2.9672
H      5.3851     -4.7088      7.5366
C     -2.7669      7.3045      7.7844
H      2.0910      1.5492      5.1967
H      1.0706      8.6041     10.1745
H      5.9213      1.3918      2.1494
H      0.9043      4.5957      9.1682
C      2.9414      1.7852      1.2279
C     12.8827     -4.1652      2.0844
C     -0.7028      3.1484      1.5145
C     -0.2003      4.1668      4.2619
C      7.3691     -2.0551      7.1849
H      1.8903     -0.4045      4.5912
H     -3.6407      7.4338      7.1816
H      2.7698     10.0665     19.0350
H     13.3080     -6.7732     -0.4845
O     12.7962     -3.2757      6.0872
C      6.1286     -1.2678      7.6466
C      0.6730      7.1731      6.9030
C      2.2667      7.9080     14.2786
C     13.4018     -5.1389      3.1049
H      8.8055     -0.5488      9.5586
C      2.9085      0.5450      3.5075
C      0.6729      2.5546      7.9147
C     10.5146     -2.3522      6.7103
C     -2.7317      3.5756      4.6379
C      5.6635     11.8869     18.0056
C      3.2081      4.1302     10.0169
C      0.6456      2.5572      1.2087
C     11.7974     -4.9636      1.5493
C      4.0174     -0.4397      8.5023
N      2.0169     -0.3155      3.6051
H      3.8053      2.4447     -0.8633
C      3.1565      1.5772     -0.3278
O      3.8169      6.4812     15.5556
C      9.5600      6.7668      0.8409
H      5.6966      9.6065     19.2537
H     -0.0609      1.8197      8.6082
C     -3.0158      5.0750      2.5116
C     -2.7358      7.3973      9.2374
H      1.9111      1.3350      6.8784
H      7.4330      4.7218      0.2215
H      7.3025     -3.9249      6.2617
C     11.3554     -3.1717      0.1389
H      3.6727     -5.3432      9.5863
H      2.3443      7.9674      8.8995
H     11.9758     -3.1539      4.4291
H      1.8787      9.4017     11.6090
H      2.2837      1.4115     -0.9145
H     -0.4510      3.4816      9.5317
C      1.8579      7.5268     15.6360
H     -8.3666      4.9550      9.7580
C      1.5147      8.5658     11.2300
H      2.5095      3.9842     10.7421
H      2.8071     11.0453     17.2714
C      4.5661      8.5753      4.5310
C      7.5974      6.9727      2.6157
C      8.1470      9.4917     14.2497
C      6.0153      8.6514     15.0480
C      4.0301      6.1368      6.4643
C      1.8213      5.0655      2.6362
C      5.8478      5.9710      0.1501
C      5.6101      7.3770      4.3075
C      8.0771      6.8315      1.1716
C      4.0368      5.1837      7.5017
C     14.1913     -7.9298      1.1685
H     -2.4984      5.1778      6.0277
C      5.9905      6.9192      5.4355
H      9.5992      5.8721      0.2425
H      0.5658      1.6651      1.8325
C      7.0793      5.4741      0.8815
H      0.0464      3.2211      3.3875
H     -2.1356      6.6145      9.6601
O      7.5699      6.7718      5.7483
H     -4.1930      9.2872     11.8823
H      1.6780      2.8515      3.6745
H     12.8289     -2.9980      1.8782
H     15.9436     -8.0056      0.6585
C     -0.5941      7.6100     11.8250
C      2.6334      6.2321     16.0904
H      0.6333      6.7461      8.9166
C     -1.6737      4.4662      4.4160
C      0.3084      6.9959      5.4166
H      4.6481     -4.7547     11.1008
H      3.1413     -0.3618      6.2104
C      1.2273      5.8552      4.7986
H      2.6826     -0.5863      1.3837
H      3.5906     11.3953     16.0857
H     -0.2431      8.4064      8.7747
C     -4.9675      6.0971      8.6778
C      4.5911      0.8778      8.3873
C      6.2080      7.4499      2.8835
C      9.6406     -3.3974      5.8177
C     12.6327     -6.5834      2.9837
C     -1.4759      6.6597      3.8181
H      3.9079      8.0351     20.9727
H      3.9712      6.0528     -0.3423
H     -3.0767      3.1835      5.6718
C      2.0135      0.9743      9.1486
C      0.6618      5.3378      3.5986
C      4.5845      3.3021      2.6961
H      1.6328      4.5917      7.8441
H     10.3976     -0.6566      8.1671
H      7.4026     -2.0066      6.0615
C      1.8754      6.8630      8.8209
C     -1.5165      5.3356      5.6576
C      3.1068      0.4355      2.0177
C      1.3642      4.7569      5.8929
C      2.0206      6.7057      7.4466
C     15.1667     -8.8272      0.5947
H     11.3216     -7.5017      1.1428
H      3.9965      2.0119      1.5428
H      3.3886      0.5403     -0.5588
H     11.6481     -2.1827      6.3289
H      5.5243      1.1639      3.9816
C     12.2992     -3.8929      5.1276
C     -4.1303      6.6396      9.6336
H      4.5532      4.7223      1.3181
H      8.5917     10.1119     13.5301
C      8.4770     -1.2124      7.4794
H     10.1332      6.6250      1.8659
H      9.2917     -2.4470      5.2013
H      6.4736      1.7349      9.5744
C     -0.1853      7.6437      7.9069
C      0.2557      4.0790      5.7276
O      7.9408      5.2805      4.1877
C     11.1456     -4.9211      5.8821
C      6.6211      1.7563      7.4486
C      5.4247      1.9915      6.4979
C      3.6283      0.6594      6.2042
H      7.4458      7.8583      6.3318
H      6.9568      2.6956      6.9544
H     -7.2731      3.4956      7.9293
H      8.2086     -3.8502      8.3488
H     12.3830     -3.3617      7.1564
H      6.7421     11.5294     18.1670
H      2.0431     -1.3141      8.3408
C      1.8954      5.3021      7.1269
H     -0.9765      4.1612      0.9424
C      3.7645      5.4018      5.1304
C      3.4845      2.9604      9.2312
H      8.0016      9.7332     15.2050
C     -4.6987      7.3673     10.6350
H      3.9794      5.4404      8.4349
H     -2.2457      6.9609     10.8825
H      7.6966      1.2985      7.3526
C      3.8437      2.7616      4.7852
C      4.8312      9.5352     18.5357
C      6.7150     -0.4245      8.7405
C      7.3127     -3.4860      7.4283
C     -7.0877      4.5511      7.9902
C      6.0143      1.1553      8.8788
H     -0.4232      3.8668      8.1034
H     -2.4127      8.3546      9.6659
H      0.5292      2.3920      0.1323
H      6.2015      9.8679     12.8676
H     -5.0927      5.6067     11.4679
H     -0.1943      2.1369      5.9429
C      1.4749     10.2461     13.5771
H      2.5594      4.8787      9.2026
H      9.4984     -3.4279      3.3812
