265

C     19.8654      8.5914     13.6319
N     -1.6482     10.5232      1.7149
C      3.6133      1.4917      7.1251
C      2.2495      2.3312      2.2967
H    -11.5831     14.1173      9.9624
C      7.0388      5.0832      2.1500
H     -2.9789      6.3627      2.7746
C      7.2316      3.6654      2.2577
C      3.4516      3.9751      5.5693
C     16.4282      7.2384     19.4256
C      6.0160      1.8186      3.7963
C     -7.0775      7.9067      8.7675
C     13.4902      8.5887     13.7915
N      0.2004      2.8013      6.4180
C      0.8725      6.0443      0.6543
O     -1.6674      3.0954      1.7434
C      3.2203      4.0338      6.9595
H     13.1423      6.7920     11.1958
C     15.8521      6.2097     17.4329
C     16.9078     10.4213     16.0668
H     16.5189      5.3628     14.9424
C     16.8578      9.0645     15.7269
H     -8.2692      7.2115     10.3712
H    -10.7232     16.7311     10.2135
H     -1.0607      6.1020      6.9998
H     -7.1865     14.4411      8.8226
C      2.9983      2.6291      7.6524
H      6.8675      1.5130      4.2056
O     14.3600     10.4020     15.5056
C     -5.5006     12.1517      9.0168
C      6.0571      5.7494      9.6651
H      2.9217     -0.4307      6.4881
H      3.6418      5.0954      8.3280
C      6.1514      2.9252      2.8545
H      5.3020      3.4201      7.6013
H     -9.0219     11.4584      9.4152
H      2.0834      7.6813      9.4887
C     17.3268     10.9016     17.2538
C     -2.5665      8.7519      5.3124
O      2.2757      8.5594      4.4439
C     -1.3480      8.2343      7.3102
C      8.6515      8.0268     11.9271
C     20.4865      7.5676     12.6611
C      6.4527      7.0574     -1.0556
H      4.6900      4.0101      1.6547
H     17.7101      9.9237     13.9325
H      2.3762     -1.9453      4.3937
H     -5.2127      5.8309      8.0751
C      7.7811      2.7840      8.1923
H      0.6242      0.9336      1.5000
C      7.1846      6.2675     10.8152
C      7.7452      5.6840      3.2729
H      8.5473      7.2841      2.1923
C     -0.9643      7.0516      5.1423
H     17.1277      8.3126     21.2471
H     16.3812     10.9504     15.1043
H      4.9543      6.7672      0.6563
H      2.5739      5.2869      0.7904
C     -3.3851     11.6048      7.5411
C      6.4012      4.7641      8.7701
C     16.1840      7.5743     17.8263
C      5.1456      4.8461     -0.7516
C     17.5832      8.8991     14.5317
H     -3.3328      7.8331      5.3022
H      8.2685      7.3836      3.9819
H     -9.4497     13.6099     10.4950
H     -7.7303     10.2357      9.2477
H     19.1438     12.2449     17.3767
C     -0.5844      3.9325      8.2635
H     21.3861      9.7286     14.7859
C     13.2779      8.9071     12.3588
C      1.6203      2.2501      8.2299
H     10.5901      6.8565     11.1481
C     -0.6607      6.0131      1.3838
H      5.6182      7.8243     -1.7744
H     -1.7060      2.3708      5.9944
C      9.9385      7.2818     12.6624
O     15.6316      9.8276     13.7363
C     -5.8638      7.9223      8.0330
C     17.1543      8.3348     20.3171
C     -9.5275     14.4220      9.5907
C      2.1808      1.0847      4.8900
H     -1.2820     10.2804      2.6087
H     -6.5184     12.4292      6.6612
H      2.9211      6.3117      9.1949
C      3.8347      3.3327      3.4433
C     -2.2450      8.1562      0.6906
C     11.4423      6.8974     11.7770
H      8.8698      2.8678      8.4143
C      5.1930      2.0519      5.1636
H    -11.1671     12.0115      9.2883
H     17.2544     12.7636     16.4071
C    -10.8404     12.7890      8.5854
C     -8.6255     11.1324      7.3603
C     -1.8842      5.1960      4.0596
C     16.7663      9.7101     19.5704
C      2.6411      3.5498      2.9554
C     -7.9116      6.8270      9.5535
H    -11.1852     12.1855      7.7150
H     15.4221      7.7455     13.2742
H      0.5304      4.0214     -0.0030
O      5.6853      6.5260      6.4054
C      0.8804      8.2786      4.6631
H     -8.3982     11.5281      6.3888
C     -2.4325      8.7365      3.6510
C     -2.2798      7.2245      2.9065
H     -4.2507     10.0278      8.6021
H      8.0116      3.0582      2.6321
C     -2.6314      8.5640      7.7583
H      2.2986      3.8895      5.2067
H      3.3073      5.3212     -0.6477
C      3.1143      1.3582      1.9958
C     -0.2922      8.2935      2.1320
O      3.7895      4.4548     -0.4503
O      7.6660      3.7418     10.3642
C     -0.3533      3.3767      1.9303
C      0.3874      3.6032      4.1604
C     -6.0045     10.4388      7.4042
H     15.8455      9.6088     18.9591
H     -0.1340     10.0810      4.5451
H     12.4366      8.2517     10.2539
O      0.7303     10.1747      6.2726
C     -7.3311     10.9027      8.2644
C      0.8776      7.0377      6.7772
C     14.5226      7.3438     13.9516
H     15.9012      8.2188     15.6404
C      0.7551      7.4732      2.9935
H     -5.2820     12.9621      8.4151
C      1.9765     -0.0067      3.8741
C      0.2629      2.8969      7.7143
C     -2.3991     10.9895      6.7317
C     -2.2151      3.3610      6.1633
C     17.9903     12.2603     17.2441
C     -9.5635     16.8101     10.1878
C      0.6371      2.0225      2.0390
C     -1.5006      7.4868      1.7351
C     -9.4801     12.2206      8.6774
N      1.6326     -1.2695      4.6980
O     17.0356      6.0741     15.0911
C      9.2712      6.0480      0.2168
H     18.6401      9.8187     18.0172
C     -2.5633      4.2314      3.2769
C     -3.1190      8.6298      9.3702
H      7.7146      2.9454      7.2543
H      1.6063      0.9392      7.0144
H      7.1587      3.0863     10.9936
H     -4.5642      9.0374      6.7648
C     -2.3553      9.5555      0.8595
H     -8.7831      6.6782      9.0315
H      1.4340      6.5105      8.8750
H     -0.3915      9.1836      2.7813
H     14.2068      8.9505     10.6898
H     -2.3814      3.7216      1.6419
H     -1.1827      3.7351      9.1454
C     15.0525      7.4152     15.3280
C     14.3076      9.3504     11.7297
H      7.4100      5.3316     11.2485
H      0.9627     -1.5469      3.7525
C      4.4449      8.3655      4.2412
C      7.7959      7.0953      2.9380
C     20.8233      9.6498     13.9037
C     18.7529      8.1608     14.7468
C      4.1606      6.0617      6.4181
C      1.9579      4.7823      2.6612
C      5.5502      6.2508     -0.0653
C      5.7288      7.2719      4.1035
C      8.0038      6.3905      0.4239
H     15.2592      9.7168     11.9797
C      4.1798      4.9219      7.5652
C      1.6307      4.8753      1.1845
H     -3.4335      8.8164      7.0318
C      6.3881      7.2132      5.2804
H      1.2427      1.7404      4.5303
H     -3.4114      4.8398      2.7037
C      6.7551      5.6361      0.8619
H     -0.7026      3.4978      4.0933
O      7.5460      7.5155      5.4814
H      9.1025      9.1077     11.6699
H     21.2347      9.1557     12.9900
H      0.9633      3.0430      3.4533
H      1.9584      4.2073     -0.7254
C     12.6005      7.7607     11.3618
H      5.8951      4.3204      6.6389
C     15.7671      6.2598     15.7011
C     -1.8483      4.7173      5.5204
C      0.6755      7.0505      5.3286
H     -7.1294      8.4864      9.7430
H      2.9594      1.9781      4.6480
C      1.5471      5.7826      5.0774
H      2.0747     -0.5715      1.3549
H     14.1663      9.7314     16.2591
H     -2.2017      8.1858      9.9088
C     -4.8511      6.8686      7.9507
C     -8.7691     13.5587      8.3780
C      6.4134      7.7262      3.0366
C     -2.7959     10.3040      5.4838
C     -0.1176      6.3197      2.8874
C     -1.2572      6.5136      3.7170
H     -3.1257     12.4504      8.1887
H      1.8201      2.5376      0.4302
H      5.9405      4.2234     -0.6219
H     -3.2151      3.2944      6.0975
C    -10.8190     14.2462      9.1699
H     -1.2437     11.5505      6.7838
C      0.7568      5.1225      3.6256
C      4.8483      3.4832      2.6069
H      1.4633      4.3564      8.2362
H     18.1993      8.4051     19.9928
C      7.2326      3.7641      9.1318
H     -1.3782     11.2167      1.0537
H     -6.0855     10.9743      6.5842
C      2.4099      7.0337      8.7489
C     -1.3970      5.8044      6.0512
C      2.0703      0.1710      2.3499
C      1.3151      4.8029      6.0368
C      2.2368      7.1858      7.2258
C      1.5270      3.6505      0.1167
H     -1.5871      5.2721      1.2867
H      4.0178      1.5099      3.0182
H     -2.9234      9.6806      9.6846
H     -4.0725      7.0804      7.3545
H      7.6370      1.7936      8.8888
H     -2.2745     11.0698      4.7394
H      5.3358      0.8092      4.2692
C     -0.0232      9.3142      5.3333
C     -4.3914      7.5977      9.2795
H      4.7025      4.7189     -1.9295
H     -2.7685      9.5605      3.1222
C     -4.9410     11.0736      8.1688
H     -2.7714      3.0890      3.6645
H     -3.7526     10.3177      5.2500
C      0.0648      7.7273      7.7720
C      0.3515      3.8903      5.6430
O      8.2915      4.9893      4.1581
C     -1.2658      8.3159      5.8310
C     -7.0869     13.5276      6.8274
C      4.6756      1.3344      6.2293
C      2.6078      0.5962      6.2238
H     -6.4295     14.3000      6.7238
H     -8.2566     16.1730      9.2566
H     -5.0875     12.5739     10.0187
H      0.4991     10.9272      5.4920
H      0.7730      8.5467      7.9448
C      1.9035      4.7908      7.3315
H      0.2373      4.4004      1.6888
C      3.9677      5.3274      5.1108
C     -9.1766     15.8780      9.1769
H     20.2657     10.4913     13.0151
H      1.0573      5.6547     -0.4358
C      8.3160      7.1125     10.5710
H     -9.1083     16.2631     11.0989
H     11.8474      5.9466     11.9408
C      4.0691      2.9151      4.7990
C     17.6224      9.6620     18.1280
C     -6.8905     11.9889      9.0479
C     -5.5611      9.0135      7.3218
C      5.4426      4.3724      7.6986
C     -7.2484     13.5191      8.3237
H     -0.3768      5.0230      8.1794
H     -2.9940     10.1895      0.3265
H     -7.2259     11.7757     10.2114
H      9.5622      5.3536      0.9782
C     14.6194      9.8147     14.3219
H     -9.7405     17.9083      9.8746
H     -1.3825      9.0367      3.5741
