262

C      6.6031      9.0807      1.1720
C      4.2294     14.4572      7.0201
C     16.1244      3.2321     14.0626
C      6.6808     17.9123     15.3855
H      9.6977      3.5065      3.0724
C      7.3412     16.5019     15.6316
C      3.4420     17.1118      5.5302
C      6.5882     22.7416     10.7654
C      3.2920     20.0090      6.5788
C      6.5635     14.8294     17.3482
C      6.3406     21.6145      9.8900
C     13.8723      8.7681     13.6692
N     12.7815      3.1300      6.2840
C     13.6884      5.8923     13.3718
C      3.2650     16.8698      7.2102
H     14.1123      5.3638     12.1774
C      2.6190     18.9779      4.4802
C      3.9114     10.6918      3.3760
H      1.2194     13.9008     22.5457
H     10.9516      2.7245      4.2001
H     17.3882      6.4335     16.1419
H      6.1069     24.4013     11.5416
C      3.6736      9.3823      3.2372
H      7.4456     23.1399     10.3049
H      7.9898     16.4338     16.7287
H     12.7231      6.7528     10.8883
H     11.7557      5.0645      6.5206
C      3.1530     15.5245      7.5087
H     10.1172     10.2443     12.6819
H      7.5452     14.8398     17.8250
O     14.3736     10.5074     15.3569
C      8.0933     12.6093     21.8649
C      6.8043     19.2531      9.5593
H     14.1440      5.9625      9.0213
C      6.4491     15.2785     15.8521
H      6.7916     17.8668      7.4746
H      6.8380     22.2027     11.6588
H      4.8897     10.3978     21.7954
H      4.4303     20.4559      9.3309
C      4.4315     11.1745      4.7551
C      9.9659      8.3669     17.9998
O     14.7868      8.4501      5.1080
C     11.3529      7.5563      7.0228
C      8.5383      8.2241     12.0025
C      7.3243      7.9458      0.1400
C      6.1795     20.2440     12.2921
H     17.8295      3.9184     14.4651
H      4.5408      9.7759      1.1215
H     15.2560     -1.0193     15.9877
H      8.7333      6.2468      7.7980
C      6.5982     20.2563     10.6200
C      7.3920      5.9641     16.3044
H      8.8166      8.9142      1.4619
C     11.8541      6.6899      4.8957
H      2.7148     21.4705      8.0208
H     18.0698      0.7150     15.3619
H      5.3337     24.2966     10.2546
H      3.6236     19.5386     13.0161
C      9.5847     11.7299     20.0903
C      5.9394     18.2220      9.3623
O      5.2321     16.3266     10.3060
C      3.0197     20.4535      5.0503
C      4.3130     18.7119     13.0609
C      4.4110      9.0699      2.0794
H      9.4346      7.3802     18.2148
H      8.6463      7.6397     16.1951
H      3.6601     13.8780     23.4623
H      6.3364     11.9882     22.7737
H      4.6533     12.7566      3.8659
C     13.2512      3.1473      8.5528
C     13.1393      8.6742     12.3133
C     14.8502      2.0758      6.9125
C     12.4972      6.4143     14.2302
H      5.3511     21.0474     12.0615
H     10.5311      2.7498      5.7830
H      5.9757     17.8953     17.3217
H      4.7083     23.1310     11.2719
C      9.9429      7.5745     12.7560
O     15.1394     11.0380     13.2715
C      6.6246     21.7053      8.2565
C      3.5223     21.3214      7.3525
C      3.4455     14.1413     22.5272
C     16.0615      1.6298     17.6697
H     10.7611     10.5199     14.2866
H      6.0587     12.8452     20.0324
C     16.9973      3.3777     16.2093
H      8.4892     10.1651     18.8002
C     10.7573      8.4535     13.3960
C     11.2208      6.8585     11.9974
H     10.7340      9.8029     19.5011
C      5.6542     15.6584     18.1977
H      5.6662     12.9333      5.3929
H      8.9369     13.5034     21.8697
C      2.4839     12.4399     21.5563
C      4.7506     11.3447     20.8649
C     10.5520      5.2741      3.3901
C      3.3871     22.6664      6.6831
C     15.7100      3.9120     15.5664
C      4.9932     21.3243      9.7929
H      1.7169     11.6567     21.2639
H     16.3720      8.2104     14.3199
H      9.0854      4.9644      2.0750
O      5.5690     19.2614      6.3790
C     13.5379      8.1738      4.6223
H      3.5921     23.3833      7.4080
C     10.1788      8.4540     16.4111
C     10.9883      7.6418     15.7813
H      5.7031     22.0725      7.6185
C     10.1241      7.6654      7.8518
H     14.4226      2.8986      4.4495
H     14.5897      7.3710     11.0187
H      6.5707     14.5311     14.9746
H     13.6920      3.6407      9.6032
C     16.8817      1.9011     13.9918
C     12.9155      8.8029      2.1036
O      6.8420     17.2325     11.6116
C     12.7847      3.8954      3.9225
C      7.1823     11.6252     19.8818
H     14.6620     -0.0631     17.3169
H      9.3728      8.2955      7.3307
H      2.3107     22.7354      6.6413
H     14.5304      6.8468     13.3439
O     12.7350      9.6891      6.1663
C      6.0518     12.0484     20.7034
C     13.6202      6.9223      6.6355
C     15.1584      7.8072     14.0527
H     15.6755      8.5150     16.0438
C     13.5697      7.8087      3.1895
H      8.5322     11.7263     22.2589
C     15.8518      1.2120     16.2781
C     13.6627      2.5610      7.3399
C     10.1981     10.7270     19.0834
C     10.4581      3.3839      4.9273
C      4.8146     12.6685      4.9698
C      2.9250     16.6604     22.7806
C     11.7986      7.8894     14.5448
C      4.0726     12.4468     21.2841
N     15.2579     -0.0887     16.5863
H     15.6076      2.0954     12.3841
C     16.2222      1.2377     12.8987
O     16.8672      6.1083     15.4596
C      9.1521      6.5314     13.9950
H      5.3214     22.2690      5.9141
H     14.8281      0.8221      7.1048
C      9.9465      4.5733      2.4344
C     10.1742      7.4310      9.2376
H     15.0900      1.8103      5.9258
H      7.4286     17.8988     13.0729
H      8.4092     22.7804      7.4346
C     10.5593      9.7826     13.5863
H      4.5702     22.0460      9.0779
H     15.7934      6.6914      9.1192
H     10.2529      5.3718      6.0945
H     11.7155      9.7428      4.3631
H     13.7082      9.0602     10.3985
H     15.3500      0.6011     13.3655
H     12.4445      2.7735      9.2987
C     15.0903      7.5766     15.4867
H      5.0298     18.6149      9.9703
C     14.1992      8.4625     11.2662
C      5.5598     23.7691     11.0229
H      2.7359     16.5750     23.9390
H      3.9491     11.5026      2.4068
C      4.1737     21.5128      4.3244
C      7.5906      7.3918     15.7416
C      8.0527      9.8049      1.2700
C      5.6653      8.3835      1.9523
C      4.2369     18.8906      6.3747
C     14.8018      4.9989     15.2848
C      5.6476     19.1926     13.2026
C      5.3674     20.5192      4.2504
C      7.7605      6.7672     14.1911
C      4.3399     17.9017      7.6302
C     14.5731      4.7074     13.9146
H      9.0248      5.7104     17.6124
C      6.0210     20.1656      5.5746
H      9.1079      5.5560     13.2055
C      6.5704     18.4189     13.8674
H     12.7518      2.9921      3.4163
H     11.4035      7.4499      9.7340
O      7.3923     20.3315      5.5132
H     12.7222      9.7504      2.2787
H      4.1192     18.0110     13.9548
H      4.5103     18.4829      4.3999
C     12.3014      7.5323     11.8386
C     15.6699      6.2022     15.9763
H     14.5345      7.6314      9.4892
C     11.3729      4.4272      4.4035
C     13.2952      6.7966      5.2086
H      4.2686     21.4397     10.4223
H      2.7816     13.1618      6.4001
C      1.1355     18.5743      4.6563
H     16.4021     -0.0470     15.1419
H     12.4674      6.5457      8.7954
C      7.9913      6.4120      8.8154
C      4.5183     13.6881     21.3582
O      5.8359     17.3974     18.0991
C      6.3214      8.0277     16.1214
C      9.4281      9.9263     18.2602
C     12.9470      6.3143      2.8311
C     11.4607      6.4065      3.4783
H      4.6151     21.0890      7.5527
H     14.9703      9.0479     11.8409
H      9.4043      3.5293      4.7795
C      2.2481     13.4200     22.4799
C     13.6064      5.2013      3.3663
C     18.0533      3.1370     15.3233
H     13.9133      4.0869      7.5089
H      8.6437     22.2369      8.8797
C      5.9803     17.0858     10.5418
H     10.0948     11.8887     20.9194
H     14.5435      9.7732     16.1270
H      6.9856     11.0881     18.8633
C     14.8159      6.7239      8.6455
C     11.3368      5.4495      5.6272
C     16.8849      0.9343     15.1865
C      1.7041     17.4611      5.6603
C     14.9108      6.4154      7.1697
C     15.3216      3.9546     13.1142
H     11.5938      5.9074     13.8838
H     17.8236      2.2498     13.7393
H     11.1461     10.9686     18.6470
H      5.9033     13.8946     17.1008
C     12.4834      8.9413      5.0060
C      8.8281      7.1528      9.6826
H      8.3446     10.0642      0.2887
C      8.2460     12.1096     20.3759
H      9.6902      6.2880     14.8354
H      9.2173     10.5092     17.2424
C     12.4978      7.0092      7.5495
C     13.6219      3.4584      5.1056
O      8.0351      5.5489     17.5204
C     11.4527      7.9298      5.6524
C      6.6051     14.6544     20.3163
C      5.6384     15.0344     19.4883
C      3.6680     13.6128      5.7966
H      6.9017     20.6746      8.0921
H      6.1968     16.5398      8.0493
H      7.4763     23.4444      8.6980
H     12.6499      9.6497      7.2782
C     14.8615      4.7248      7.1545
C      3.8027     18.4224      5.1176
C      3.0364     15.6367     22.1002
H      8.4109     10.1769      2.2112
C      8.2004      7.1199     10.9995
H      3.6192     18.3225      8.4507
H     10.9519      6.1453     11.2265
H      7.6846     15.1079     20.5780
C     16.8660      3.0467     17.5583
C      4.2792     22.7773      5.4705
C      6.6550     12.6401     21.9899
C      7.8906     22.4854      8.3052
C      5.7173     17.5885      8.0240
C      5.9600     14.0947     21.7411
H     12.7666      3.9509      8.1136
H     10.0726     12.6415     19.5875
H      5.9284      9.8595      0.8900
H      8.2653      6.0138     11.5962
H     11.9357      3.6917      6.5449
C     14.5346     10.1260     13.9442
H      3.3261     17.7110     22.5806
H      9.5808      9.0725     15.7770
