260

C     19.4523      8.3051     13.7985
N     -2.6780     10.2328      2.1772
C      4.0164      1.5495      7.0519
C      2.4525      2.7586      2.0943
C      7.6974      4.7281      2.2334
H     -3.0163      6.4457      2.3605
C      7.8931      3.3050      2.5148
C      3.4775      3.9257      5.2370
C     16.0374      7.2557     19.6066
C      6.6065      2.1125      4.2651
C     -7.0031      8.5396      9.4771
C     13.6368      8.7070     13.8627
N     -0.0026      2.4865      6.0815
C      0.6258      6.0357      0.6849
O     -0.9855      2.1974      1.5937
C      3.3552      3.9543      6.9071
H     13.5417      7.2456     11.4870
C     15.4349      6.2086     17.4360
C     16.8783     10.2249     16.1069
H      1.5564      0.9891      9.7567
H     -2.6568      2.4147      4.4273
H     17.3226      6.4118     15.8801
C     16.9036      8.6543     16.1510
H     -8.3450      7.7354     10.5459
H     -7.4600      9.1481     10.1942
H      1.7072      4.2327      9.3579
H     -1.9750      5.3680      6.9772
H     -6.7101     14.4209      9.4703
C      3.1839      2.7983      7.6357
H      7.6291      2.0640      4.8471
O     14.2759     10.6522     15.4731
C     -4.8576     12.2585      8.8287
C      6.1994      6.0198      9.6956
H      3.6207     -0.1170      6.2882
H      4.1389      4.9609      8.6773
C      6.5251      2.9626      3.0129
H     -4.0673     11.6472      9.2578
H      4.0711     -0.4630      9.8806
H      1.6535      7.7652      9.2902
C     17.4907     10.8197     17.1284
C     -2.8304      8.4088      4.7975
O      1.9449      8.6308      4.7938
C     -1.7944      8.0108      7.0121
C      8.7331      8.1440     11.7488
C     20.6297      7.6523     12.9605
C      6.4566      6.8727     -1.0774
H      5.7343      3.6246      1.3637
H     16.6667      9.0026     14.1477
H      1.8418     -1.7302      5.2343
H     -5.3773      6.3056      8.1779
C      7.8336      2.7369      9.0638
H      1.4998      1.2031      1.9219
C      7.2918      6.5335     10.7393
C      7.6083      5.5963      3.4392
H      7.9243      7.0979      1.9595
C     -1.1492      6.5619      5.1988
H     16.8944     10.9113     15.0870
H      2.5556      5.8645      0.5181
C     -3.4456     11.3586      7.0950
C      6.5767      4.9007      9.0616
C     15.7626      7.6041     18.1391
C      4.9722      5.5126     -0.1657
C     17.1606      8.3681     14.8714
H     -3.6725      7.7314      5.1356
H      8.2715      7.6032      3.7533
H      3.6143      1.2853     10.6908
H     18.3870     12.2878     16.1214
H     19.2119     10.1921     14.8997
C     12.8348      8.7969     12.6313
C      1.5199      1.8439      7.8397
C     -0.6001      6.1457      1.4849
H      5.7225      7.6524     -1.2922
H     18.9611      8.8190     12.9751
C     10.0772      7.5366     12.5491
O     15.3958     10.4677     13.3939
C     -5.6431      8.6178      8.8046
C     16.7620      8.3522     20.3880
C      3.5129      1.4481      9.5744
C      2.7670      1.1283      4.6841
H     -1.6918     10.5358      2.4132
H     -3.4700     11.1266      2.1665
H     -7.3746     12.9581      6.7389
H      3.3053      6.9143      8.9777
C      4.2483      3.7736      2.9909
H     -3.8078      9.1375      7.3679
C     -2.2741      8.2653      0.7413
C     11.3256      6.9447     12.0226
H     -2.6306     11.6614      5.2533
C      5.4330      2.3682      5.1506
H     17.0531     13.0677     17.6189
C      2.4955     -0.4897      8.5967
C     -8.1481     11.2837      7.9620
C     -2.0279      4.8667      3.7701
C     16.4934      9.5585     19.5414
C      2.8511      3.8275      2.7112
C     -7.6466      7.0547      9.7651
H      1.8191     -0.8740      9.4999
H     15.1898      7.7010     12.8817
H      9.4947      5.7745      4.5764
H      0.7364      4.0649     -0.7807
O      5.5078      6.5344      6.4818
C      0.7045      8.0013      4.6181
C     -2.8055      8.2916      3.3526
C     -2.3213      7.1079      2.7227
H     -4.6409      9.0539      9.3110
H      8.2425      3.1194      3.7155
C     -2.8338      8.8216      7.8525
H     12.0355     10.0570     11.0177
H      3.5417      4.8112      0.4941
C      3.3156      1.5156      2.1099
C     -0.1971      8.4218      2.0008
O      4.2734      4.3325      0.1470
O      7.8362      4.3495     10.8342
C     -0.0059      2.8917      1.4642
C      0.3275      3.3836      3.9526
C     -6.0197     10.6537      7.3373
H     -2.3311      9.7738      8.0191
H     15.5869     10.2701     19.7076
H     -0.7411      9.3600      3.9118
H     12.5373      8.3774     10.7432
O     -0.1406     10.0374      5.9722
C     -6.9126     11.2029      8.6330
C      0.5826      7.0504      6.8529
C     14.4771      7.5332     13.7192
H     15.1523      8.3444     15.4691
C      0.5536      7.4273      3.1945
H     -4.7502     13.1949      8.7892
C      2.5156      0.0437      3.8965
C      0.1194      2.3701      7.3723
C     -2.9277     10.8957      5.8955
C     -2.6722      3.1168      5.2351
C     17.6970     12.3442     17.0380
C      2.7702      4.0398      9.9423
C      1.2770      2.1253      1.5123
C     -1.3401      7.4049      1.6661
C      3.9995     -0.6463      8.6737
N      2.2504     -1.2566      4.4687
C      3.5528      1.4632      0.7262
O     16.8496      5.9922     15.3129
C      9.6838      6.1961      0.1964
H     18.5212      9.5496     18.7794
C     -2.3994      4.0110      2.6242
C     -2.8202      8.1746      9.2084
H      7.0383      2.6509      8.2108
H      2.3418      0.5358      6.7447
H      7.5219      3.6372     11.3755
H     -4.3567      9.4691      5.3146
C     -3.0709      9.2445      1.3168
H     -8.4584      7.1105      8.9566
H      1.9314      5.8754      9.2020
H     -0.3142      9.3526      2.5907
H      3.7670      2.3637      0.1009
C     14.8105      7.4514     15.2369
H      4.7725      1.1764      0.6827
C     13.0601      9.9124     11.8800
H      2.6795     -2.0869      4.0279
C      4.1160      8.4093      4.5326
C      7.5518      6.9958      3.0286
C     20.1041      9.5681     14.4487
C     18.5072      7.5719     14.6800
C      4.2538      6.0196      6.3383
C      1.9211      4.9394      2.5560
C      6.2955      5.4983     -0.0303
C      5.3287      7.3647      4.3163
C      8.3991      6.5267      0.7405
H     13.2693     10.7988     12.4634
C      4.5491      5.0270      7.5921
C      1.6885      5.1676      0.9411
H     -2.3291      7.1691      7.0503
C      6.1162      6.8710      5.4208
H      2.0299      1.7093      4.9465
H     -2.7712      4.1736      1.5938
C      7.1876      5.3385      0.9329
H     -0.7769      3.1347      3.8414
O      7.2428      7.3845      5.4065
H      8.9927      9.1439     11.5163
H     20.8740      9.2855     15.1630
H      1.0025      2.5524      3.7606
H      2.2106      4.8197     -0.7285
H      7.8136      1.7101      9.3364
H      4.6579      5.8726      4.3218
C     12.6378      7.7009     11.5577
H      6.7762      4.4271      7.0425
C     15.5107      6.1257     15.8951
H      0.3429      8.1811      8.2919
C     -2.0637      4.3485      5.0695
C      0.2728      6.7777      5.4230
H     -7.6494      8.8186      8.8009
H      3.7127      1.5619      4.4876
C      1.1287      5.6578      4.9326
H      2.0241     -1.0832      7.8113
H      3.0929     -0.6857      1.9278
H     14.3601      9.9902     16.2513
C     -4.9806      7.4625      8.3082
C      4.4553      0.7579      8.5136
C      6.1887      7.5577      3.0492
C     -3.4187      9.8323      4.9126
C     -0.1856      6.1482      3.0475
C     -1.5779      6.2199      3.7629
H      1.9480      3.1143     -0.0885
H      4.2186      6.1628     -1.0600
H     -2.7239      2.7570      6.2763
C      2.2510      0.9730      8.8530
H     -1.9734     10.6476      6.2414
C      0.5748      4.8362      3.5379
C      5.4839      3.4977      2.4660
H     -6.4901      8.6193      6.9391
C      7.5416      4.0336      9.5926
H     -2.8118     11.9559      7.5792
H     -6.2315     10.6877      6.3634
C      2.2172      6.9198      8.8765
C     -1.5679      5.3213      5.9647
C      2.8174      0.1716      2.5653
C      1.1353      4.6046      6.0518
C      1.9490      6.6185      7.3659
C      1.6060      4.1308     -0.2187
H     -1.0637      5.1887      1.2746
H      4.2389      1.2023      2.5511
H     -2.1021      8.5267      9.8298
H      3.2618      0.6756      0.3457
H     -4.5822      7.5529      7.3740
H      6.5846      0.9576      3.8098
C     -0.4474      8.8865      5.0025
C     -3.9781      7.2369      9.3955
H      4.9533      6.3056      0.7221
H     -3.7548      8.5829      3.0102
C     -4.7649     11.4413      7.5083
H     -3.8652      9.9108      3.8396
C     -0.4212      7.9106      7.3793
C      0.4987      3.4714      5.4624
O      8.4996      5.1862      4.3649
C     -1.6750      8.2059      5.5074
C     -6.5420     13.9345      7.2066
C      5.3495      1.8711      6.3819
C      3.1195      0.7392      6.0614
H     -5.4823     14.1026      6.8166
H      4.4823      3.1747      9.2767
H      0.6822      9.7784      6.3903
H     18.5597     12.4388     17.6583
C      1.8576      4.9153      7.3354
H     -0.1419      4.0151      1.6311
C      3.8024      5.3775      4.9746
C      3.4529      2.8812      9.3141
H     20.5370     10.2972     13.7137
H      0.1651      6.0266     -0.4454
C      8.4950      7.1670     10.8054
H      2.6033      3.9953     10.9955
H     11.4338      6.0209     12.6767
C      4.4427      3.1412      4.5743
C     17.3719      9.7208     18.3854
C     -6.2677     12.2978      9.3758
C     -5.8698      9.3826      7.6275
C      5.9752      4.0982      7.7792
C     -6.9521     13.6008      8.6332
H     -0.3476      4.9317      6.1338
H     -3.9054      9.4672      0.4672
H     10.0015      5.1480      0.2700
C     14.4478      9.8984     14.1190
H      3.5361      4.8496      9.6224
H     -2.0244      8.7418      2.7966
