265

C     19.6660      8.6956     13.5311
N     -2.3335     10.7457      1.6337
C      3.9008      1.4946      7.1014
C      2.0802      2.4291      2.1174
C      7.9245      5.0122      2.2564
H     -3.0165      7.2829      1.7295
C      7.4981      3.7014      3.0505
C      3.4918      3.9905      5.2863
C     16.2339      7.1618     19.3375
C      6.1544      1.8410      3.9490
C     -7.4750      8.4816      9.4074
C     13.6223      9.1600     13.7698
N      0.8793      2.4171      5.6931
C      0.2660      5.7720      0.6468
O     -1.4706      2.5733      1.8464
C      3.0967      3.9546      6.6830
H     13.3897      6.6523     12.4698
C     15.5734      6.1718     17.3742
C     16.6756     10.4178     16.6698
H    -11.4126     14.6707      9.8732
H     -2.2475      2.1676      5.1987
C     16.9202      9.0023     16.2019
H     -8.1002      9.1846      9.9180
H     -1.0755      5.5690      6.5169
H     -6.7797     14.7906      9.5293
C      2.9720      2.7166      7.4803
H      7.2383      1.9465      4.4047
O     14.1020     10.8194     15.6016
C     -4.9798     12.9480      8.1949
C      6.3902      6.0865      9.3503
H      3.0228     -0.3322      6.6222
H      3.9472      5.4173      8.0284
C      6.3942      3.0109      3.0578
H      6.0207      3.3046      7.4544
H     -8.5356     10.1483      8.0998
H      3.0741      6.9120      8.9817
C     17.4245     10.9078     17.7343
C     -2.7833      8.7483      4.9462
O      1.9851      8.4653      4.8995
C     -1.3246      8.5219      6.8921
C      8.8296      7.9199     11.6681
C     20.5408      7.6041     12.7262
C      6.4620      6.7941     -1.1321
H      4.9207      3.7373      1.3828
H     17.2796      9.2039     14.2774
H      1.1965     -0.3165      5.4675
H     -4.9625      5.5630      8.2688
H     15.5105     10.2579     12.7579
C      7.8646      2.9664      9.2978
H      1.0039      1.8019      2.7174
C      7.1785      6.5196     10.4970
C      7.7825      5.9551      3.2415
H      8.0112      7.4966      2.1258
C     -1.2173      6.8545      5.0721
H     15.4355      8.1701     20.8960
H      3.5002     -0.3600      2.7658
H      2.6008      5.9490      0.6125
C     -3.0088     11.3924      7.5332
C      6.2832      4.7837      8.9950
C     15.9490      7.5023     17.9293
C      4.8688      5.3166     -0.3115
C     17.7701      8.8351     15.1092
H     -3.2282      7.7131      4.9993
H      8.4648      7.8421      3.7766
H     -9.1828     14.6382     10.3618
H     18.9232     12.2412     16.9467
C      0.1338      3.2965      8.0736
H     21.1843      9.8191     12.9056
C     12.5953      8.9887     12.6318
C      1.8614      1.7392      7.7738
H     11.0507      7.0075     10.5068
C     -0.5907      6.4800      1.3985
H      5.7968      7.7066     -1.0146
H     18.6645      9.0464     13.1214
C     10.2165      7.4853     12.3107
O     15.4447     10.6382     13.6260
C     -6.4302      8.5488      8.7440
C     16.4166      8.3162     20.3381
C     -9.3534     14.6583      9.3664
C      2.7538      1.0695      4.9493
H     -2.1116     10.1634      2.4478
H     -7.2241     12.1603      6.9523
H    -11.3570     17.0766      9.3955
C      4.1071      3.2749      3.0927
H     -3.6600      7.8894      7.2648
C     -1.7797      8.6281      0.3286
C     11.4288      7.1002     11.4944
H     -1.4831     10.7827      6.2697
C      5.1878      2.0651      5.0125
C    -10.4276     12.7192      9.3942
C     -8.2990     11.2744      8.2221
C     -2.3792      5.2971      3.7398
C     16.6989      9.5851     19.3887
C      2.7932      3.4926      2.5150
C     -7.8915      7.0038      9.5318
H     15.7001      8.1737     13.3477
H      9.0242      5.9250      5.1862
H      0.7752      3.8364     -0.7056
O      5.6027      6.6808      6.5278
C      0.6358      8.0040      4.5002
H     -8.9324     11.7285      7.5285
C     -2.7453      8.8827      3.3622
C     -2.1615      7.6323      2.6564
H      8.2991      2.8404      3.6040
C     -2.7406      8.2974      7.6798
H      2.3737      3.8614      4.7657
H     12.4500     11.1051     11.8001
H      3.7280      3.7025     -0.6530
H      0.1782      2.8933      9.1582
C      3.0506      1.2819      2.1157
C     -0.1196      8.7656      2.1500
O      4.2438      4.2008      0.0913
O      7.1974      4.2131     11.2489
C     -0.4794      2.9538      1.5015
C      0.0548      3.9746      3.7797
C     -5.7439     10.9342      7.6634
H     -3.2163      9.2230      7.8722
H     15.6538      9.7516     19.1318
H     -0.6203      9.9210      4.1704
H     13.3044      8.0310     10.8632
O      0.3962      9.8745      6.0948
C     -6.8175     11.7826      8.0064
C      0.7375      7.0277      6.7101
C     14.7830      7.9015     13.7982
H     15.6764      8.4267     15.8949
C      0.5600      7.7677      3.0304
H     -4.4377     13.8841      8.6269
C      2.4524      0.0079      4.1042
C      0.5838      2.1783      7.1945
C     -2.5518     10.6831      6.3476
C     -2.4079      3.2911      5.5170
C     17.9166     12.1549     17.7810
C    -10.3509     16.7704     10.0639
C      0.6789      2.1742      1.7707
C     -1.1348      7.9248      1.6449
C     -9.0297     12.5053      9.0611
N      1.6207     -0.9569      4.6281
C      3.7062      0.9642      0.4964
C      9.6919      6.4882      0.2775
H     18.7821      9.8411     19.1924
H     -0.1630      1.3766      7.2231
C     -2.9262      4.6196      2.4185
C     -2.3654      7.7052      9.0620
H      7.2334      2.8832      8.3299
H      7.1420      3.2309     11.4826
H     -4.5264      8.9574      7.8681
C     -2.4424      9.9280      0.5569
H     -8.6748      6.7896      8.8166
H      1.5344      7.5809      9.2151
H     -3.3930      2.9300      5.9883
H     -0.2609      9.8653      2.5495
H     13.9662     10.4759     12.4753
H      4.7928      0.9030      0.9628
H     -0.8938      3.2543      7.9066
C     14.8727      7.5290     15.3088
H      2.8847      0.4303     -0.0175
C     13.0640     10.1979     11.7663
H      2.0690     -1.8488      5.2354
C      4.4728      8.2305      4.4065
C      7.8134      7.3945      3.0688
C     20.7802      9.6870     13.8711
C     18.9918      8.0797     14.7925
C      4.5375      5.8437      6.1144
C      2.0243      4.9045      2.3281
C      6.3136      5.7242     -0.1855
C      5.6619      7.3807      4.1727
C      8.3013      6.5390      0.3567
C      4.3620      4.7586      7.1928
C      1.7454      5.0604      0.8811
H     -2.7142      6.3459      6.4650
C      6.4394      6.8642      5.4683
H      0.2211      1.7175      5.2400
H     -1.8116      4.5332      1.8661
H      0.8132      1.1449      1.1435
C      7.4299      5.3661      0.7763
H     -0.8884      3.9985      4.3810
O      7.6648      7.3516      5.5924
H      8.8668      9.0579     11.6006
H     20.3365     10.7751     14.0308
H     -0.0512      3.0424      2.9711
H     -2.0694     11.7910      1.6576
H      2.6088      4.3087     -0.5585
H      4.6749      5.2107      4.2070
C     12.9174      7.6964     11.8127
C     15.5988      6.1338     15.7543
H      2.1739      5.6465      8.9401
C     -2.1746      4.6311      4.9612
C      0.3173      6.7407      5.0621
H     17.3429      7.8489     20.9304
H      2.9938      2.0739      4.3659
C      1.4577      5.6653      4.7037
H    -11.1295     11.9215      9.5499
H      2.1528     -1.0271      2.4132
H     15.9112     10.9371     15.7587
H     -0.0014      8.0191      8.2932
C     -4.2397      6.3815      8.3351
C     -8.5523     13.8174      8.5191
C      6.4315      7.5171      3.0454
C     -3.4594      9.9491      5.7087
C     -0.1196      6.3954      2.9111
C     -1.4859      6.5316      3.4570
H      2.4838      3.0313      0.2509
H      4.6227      5.6107     -1.4009
H     -1.6720      3.3115      6.5406
C    -10.8383     14.0349      9.2253
H     -0.9150      9.5175      7.5161
C      0.7054      5.1739      3.3511
C      5.2252      3.3051      2.2892
H      1.4952      4.5258      7.7439
H     -6.0455      9.0537      6.9960
C      7.2017      3.9326      9.8197
H     -2.2947     12.2311      7.9438
H     -5.3331     10.8134      6.5525
C      2.1204      6.7182      8.6095
C     -1.8444      5.7593      5.8450
C      2.6058     -0.0184      2.6717
C      0.8652      4.7298      5.9278
C      1.9549      6.4181      7.1478
C      1.8585      3.8645     -0.1525
H     -1.4422      5.9444      1.2632
H      4.0852      1.7476      2.6409
H     -1.8323      8.4593      9.7427
H      3.2351      1.6774     -0.1796
H     -3.7475      6.5902      7.3550
H      5.5028      1.0863      3.4978
C     -0.1759      9.1731      4.8625
C     -3.6208      7.1113      9.2922
H      4.4810      6.3348      0.1529
H     -3.3741      9.4225      2.6623
C     -4.4213     11.6251      8.0099
H     -3.1000      3.5605      3.0347
H     -4.3664      9.1704      5.9980
C     -0.0329      7.8823      7.2869
C      0.4357      3.5281      5.3218
O      8.5181      5.6549      4.3073
C     -1.3414      8.3854      5.4598
C     -6.7378     14.5183      7.1222
C      5.1903      1.5226      6.3322
C      3.0116      0.5933      6.1903
H     -5.6027     13.4922      7.4309
H     -6.1761     12.4470     10.0844
H      0.4438     10.7264      6.1620
H     18.2668     12.8285     18.5989
H     13.3059      9.8681     10.5312
C      1.9760      4.8727      6.9748
H     -0.2125      4.0343      1.7233
C      3.9440      5.4285      4.9076
C     -9.4703     16.0886      8.8586
H     21.6747      9.0581     14.1990
H     -0.0196      5.0267     -0.1149
C      8.5088      7.0014     10.4858
H    -10.7300     15.8176     10.7115
H     11.5554      6.0088     11.7681
C      4.1898      3.0789      4.4960
C     17.8254      9.9497     18.9077
C     -6.3816     12.8463      8.7929
C     -5.7307      9.3522      7.8940
C      5.7058      4.3660      7.5920
C     -7.0663     14.0315      8.8156
H     -0.3184      4.8555      6.3453
H     -2.4902     10.2245     -0.5111
H     10.2069      5.6170      0.5243
C     14.4164     10.1966     14.3306
H     -9.4189     17.3224     10.1493
H     -2.0381      9.9399      3.6992
265

C     19.8431      8.6813     13.5081
N     -2.4937     10.7483      1.6213
C      3.8906      1.5128      7.1165
C      2.2163      2.4081      2.1936
C      7.7159      4.8759      2.2467
H     -2.9118      6.9220      2.1918
C      7.4960      3.7243      3.0023
C      3.3806      4.0340      5.2527
C     16.2494      7.1582     19.4632
C      6.1143      1.7901      4.0058
C     -7.5900      8.4509      9.4076
C     13.6795      8.9798     13.8871
N      0.6903      2.3694      5.7104
C      0.3335      5.6669      0.6542
O     -1.5298      2.4267      1.8102
C      3.1970      4.0046      6.6916
H     13.4613      7.0942     12.2984
C     15.7797      6.1040     17.2712
C     16.8425     10.2843     16.6930
H    -11.5305     14.6626      9.9414
H     -1.6362      2.3140      5.2379
C     16.9208      8.9660     16.2854
H     -7.8587      6.8564     10.6742
H     -7.8130      9.3890      9.9654
H     -1.2781      5.4332      6.8078
H     -6.9077     14.8010      9.3554
C      3.0893      2.7344      7.4803
H      7.3501      1.8067      3.9837
O     14.0838     10.8937     15.6352
C     -5.0075     13.1096      8.2950
C      6.1783      6.2839      9.3757
H      4.1200      5.1885      8.4684
C      6.3133      3.0096      2.9523
H      6.2813      3.5827      6.9695
H     -8.2276     10.1239      8.3985
H      3.1428      6.8639      9.2396
C     17.2323     10.9110     17.7509
C     -2.8115      8.9009      4.9334
O      1.9089      8.3469      4.7373
C     -1.4342      8.4954      7.0567
C      8.7839      7.9780     11.6494
C     20.6108      7.6521     12.6599
C      6.5441      6.7613     -1.0985
H      5.0793      3.7220      1.3967
H     17.4892      9.3108     14.2195
H      1.1706     -0.5316      5.4138
H     -5.2803      5.9095      8.0972
H     15.4250      9.8897     13.0347
C      7.8565      2.8019      9.4804
H      0.5909      1.6445      2.8033
C      7.0720      6.6352     10.4895
C      7.7611      5.9026      3.2167
H      8.2540      7.9049      1.9664
C     -1.1143      6.8305      5.1032
H     15.5583      8.6439     20.9795
H      3.8540     -0.4315      2.9594
H      2.4170      6.1929      0.7918
C     -3.1412     11.4798      7.3532
C      6.2357      4.8867      8.8688
C     15.9909      7.5050     17.8284
C      4.8078      5.3455     -0.2669
C     17.8377      8.9316     15.0933
H     -3.3139      7.8597      5.0465
H      8.2463      8.0681      3.5012
H     -8.9467     14.5060     10.6251
H     18.7849     11.6754     17.0117
C     -0.0517      3.2932      8.1617
H     21.0914      9.7768     12.8443
C     12.6338      8.8865     12.5805
C      1.7719      1.8386      7.8680
H     11.3164      6.5948     10.3961
C     -0.5469      6.5268      1.5192
H      5.6619      7.4375     -0.7548
H     18.9908      9.1382     13.0129
C     10.2329      7.4237     12.2169
O     15.3199     10.6972     13.6109
C     -6.2900      8.4844      8.8003
C     16.3434      8.4294     20.2625
C     -9.2605     14.8260      9.5708
C      2.6689      1.0621      5.0341
H     -1.9185     10.6612      2.2749
H     -6.7925     12.6123      7.0845
H    -11.2810     17.2394      9.6265
C      4.1711      3.2712      3.1089
H     -3.5983      7.8498      7.0049
C     -1.7054      8.5370      0.3203
C     11.3963      7.0264     11.5109
H     -1.4458     10.5053      6.1470
C      5.0689      2.0786      4.9535
H     17.1101     12.9720     17.3954
C    -10.4395     12.7032      9.1834
C     -8.2385     11.2160      8.1904
C     -2.3192      5.2323      3.5116
C     16.6573      9.5352     19.4006
C      2.8124      3.5434      2.6822
C     -7.8636      7.0593      9.6129
H     15.6589      8.3946     13.6015
H      9.0435      6.3601      4.7284
H      0.6867      3.7680     -0.6732
O      5.7251      6.9393      6.4392
C      0.7136      8.1413      4.4477
H     -8.7469     11.9029      7.4479
C     -2.7071      8.8353      3.4512
C     -2.1387      7.7569      2.6709
H      8.1330      3.8443      3.8675
C     -2.7263      8.3619      7.6287
H      2.4065      4.1351      4.8091
H     12.3426     10.7916     11.2698
H      3.3092      3.9440     -0.3987
H      0.3790      3.1337      9.1214
C      3.1130      1.3109      2.0953
C     -0.0769      8.8492      2.1352
O      4.2460      4.1532     -0.0379
O      7.3122      4.1413     11.1662
C     -0.4498      3.1589      1.5040
C     -0.0927      4.0617      3.7208
C     -5.7441     10.7664      7.6064
H     -3.0379      9.3281      8.0194
H     15.6558     10.0632     19.0531
H     -0.8085      9.6425      4.0339
H     13.1561      8.2304     10.8025
O      0.4739      9.7636      6.1571
C     -6.9857     11.6659      7.9434
C      0.6768      6.8231      6.7558
C     14.7373      7.9359     13.9617
H     15.7493      8.3137     15.8938
C      0.5934      7.7439      3.0109
H     -4.7382     13.9517      9.0613
C      2.3595     -0.0994      4.0132
C      0.4297      2.2663      7.1434
C     -2.5219     10.8274      6.2763
C     -2.2523      3.2290      5.7069
C     17.8526     12.2456     17.8342
C    -10.3007     16.8551     10.0443
C      0.7939      2.1336      1.7797
C     -1.2480      7.9219      1.5705
C     -9.1617     12.5288      9.0347
N      1.4517     -1.0044      4.6767
C      3.4889      0.9735      0.6305
C      9.6052      6.4247     -0.0228
H     18.6421      9.6790     19.3314
H     -0.2159      1.3287      7.3057
C     -2.8991      4.6236      2.4700
C     -2.3434      7.8934      8.8745
H      7.5319      2.5868      8.4380
H      2.1467      0.6984      7.2357
H      7.1078      3.1512     11.3871
H     -4.5458      9.0251      7.7047
C     -2.4739      9.9177      0.6401
H     -8.5666      6.7062      8.6914
H      1.3952      7.6043      9.0651
H     -3.3176      3.2512      5.9487
H     -0.6393      9.8557      2.1148
H     13.7808     10.8286     12.2613
H      4.6122      0.8024      0.3730
H     -1.2097      3.4419      8.3288
C     14.9286      7.4779     15.3866
H      3.2957     -0.2331      0.0697
C     13.0773     10.0934     11.7320
H      1.5012     -1.8902      5.0488
C      4.4989      8.0885      4.3160
C      7.8912      7.2656      2.9297
C     20.9363      9.6943     13.9687
C     18.9095      8.0904     14.8970
C      4.3581      6.0007      6.1867
C      2.1111      4.8258      2.3836
C      6.2515      5.7395     -0.0338
C      5.6731      7.4494      4.1680
C      8.3101      6.5628      0.5016
C      4.4177      4.9518      7.2318
C      1.6287      5.0606      0.8484
H     -2.6064      6.1308      6.4725
C      6.4793      6.8938      5.4286
H      0.5180      1.4284      5.4414
H     -2.2897      4.7751      1.6577
H      0.3979      1.4220      1.1606
C      7.4023      5.5499      0.7997
H     -1.1865      4.4281      3.5733
O      7.5491      7.1483      5.5367
H      9.1384      9.0803     11.8599
H     20.4101     10.5818     13.8373
H      0.5816      2.9895      3.6145
H     -2.0364     11.6334      1.4948
H      4.4857      5.1589      3.8359
C     12.8076      7.7283     11.7030
C     15.6938      6.2171     15.7401
H      1.8563      5.8864      9.2454
C     -2.2657      4.7093      4.8627
C      0.4201      6.7723      5.1442
H     17.2925      8.4625     20.6523
H      2.5496      1.9233      4.3945
C      1.1767      5.7795      4.6272
H    -11.1500     11.9832      9.3481
H      2.1080     -0.5196      2.0256
H     16.4840     10.8635     15.9552
H      0.1013      7.8787      8.5048
C     -4.2829      6.4182      8.2610
C     -8.5421     13.8023      8.6784
C      6.3383      7.3604      2.9315
C     -3.5631      9.8561      5.7060
C     -0.0679      6.2955      2.8417
C     -1.4774      6.4957      3.5705
H      2.0558      2.8144      0.1846
H      4.6150      5.1767     -1.5193
H     -1.7182      3.4540      6.5159
C    -10.8865     14.1682      9.3281
H     -1.2441      9.4618      7.1713
C      0.8302      5.2292      3.3354
C      5.1074      3.3052      2.3151
H      1.5047      4.4454      8.0772
H     -5.9590      8.6141      6.8682
C      7.1207      4.1593      9.8392
H     -2.6166     12.3036      7.9835
H     -5.9960     10.8089      6.6199
C      2.1693      6.8068      8.5959
C     -1.7646      5.7291      5.7905
C      2.7247      0.0496      2.7064
C      0.7388      4.7106      5.9810
C      2.0431      6.4069      7.2075
C      1.7043      3.8682     -0.2441
H     -1.5812      6.2071      1.2560
H      3.8240      1.5190      2.8610
H     -1.9622      8.2299     10.0026
H      3.3668      2.0198     -0.0309
H     -4.1133      6.4071      7.2888
H      5.7950      0.9124      3.1597
C     -0.2369      9.1773      4.8623
C     -3.6341      6.8756      9.3874
H      4.1909      6.1274     -0.1395
H     -3.6807      9.4746      3.4014
C     -4.4658     11.6706      7.7311
H     -3.0297      3.7105      2.5557
H     -4.5264      9.9131      5.9459
C     -0.0582      7.7066      7.4531
C      0.2384      3.6188      5.2782
O      8.4952      5.5224      4.3941
C     -1.4621      8.3923      5.4756
C     -6.5377     14.4292      7.0284
C      5.1918      1.5504      6.2513
C      3.0891      0.5690      6.2608
H     -5.3724     13.7111      7.2061
H     -6.5253     12.1661      9.8267
H     -0.1894     10.5754      6.0991
H     18.2023     12.7695     18.7533
C      1.8825      4.8989      6.8495
H     -0.5908      4.2117      1.5723
C      3.9879      5.2347      4.9881
C     -9.4957     16.1528      8.9047
H     21.8200      9.1256     14.3089
H     -0.2262      5.1909     -0.3126
C      8.5131      6.9634     10.5868
H    -10.7215     16.0576     10.7407
H     11.9537      6.2121     11.9443
C      4.1319      2.9730      4.5271
C     17.7610      9.8850     18.7336
C     -6.2604     12.7506      8.7788
C     -5.6015      9.2598      7.7500
C      5.8592      4.4412      7.5551
C     -6.9668     14.0745      8.6166
H      0.1980      4.6594      7.0424
H     -2.6870     10.4012     -0.3119
H     10.2527      5.5502      0.2777
C     14.4551     10.1028     14.4240
H     -9.8509     17.8066     10.6961
H     -1.8107      9.5114      3.0088
