266

C     20.1426      9.1340     14.0212
N     -1.6358     10.4618      1.5570
C      3.9370      1.5546      6.8904
C      1.8994      2.8559      1.6192
C      7.1489      4.9826      2.4449
H     -3.6358      4.0344      2.4435
C      6.8761      3.8202      2.9007
C      3.5385      4.0733      5.2495
C     -6.3125      9.8961     10.6832
C     16.4160      7.1395     19.5158
C      5.8611      1.6797      3.6404
C     -7.0691      8.8941      9.9853
C     13.9417      8.5918     13.8048
N     -0.2662      2.5268      6.0555
C      0.4533      5.8886      0.6710
O     -1.7410      2.2594      1.5227
C      3.2288      4.0346      6.8703
C     15.5998      6.1198     17.4836
C     16.4732     10.3945     17.0412
H    -11.7265     13.4248      9.5803
H     -3.7602      3.9763      4.3508
H     17.3185      6.4826     15.2773
H     -6.8308     11.3036     12.5654
C     16.9819      9.1153     16.4530
H     -7.7031      8.4078     11.3508
H     -5.9428     10.6844      9.7594
H      6.2714      4.1700      3.8882
H     13.3011      7.3019     10.9035
H     -0.6953      4.7283      6.3558
C      2.9407      2.6497      7.6193
H      6.5514      0.6515      3.5912
O     14.8926     10.0455     15.3365
C     -4.7844     12.8017      8.4342
C      6.7996      5.7113     10.0905
H      2.4988      0.1223      6.0562
H      1.7081      7.7970      8.9859
C      6.1078      2.4892      2.4265
H      6.3323      5.1498      7.6999
H     -5.3723      9.9226     11.1253
H     -7.5165     11.2417      9.7470
H     -7.9521      7.2308      9.5334
C     17.5360     10.8003     17.9481
C     -3.0730      8.2070      4.9687
O      1.9261      8.7012      4.9513
C     -1.2390      8.0436      7.1081
C      8.8608      8.1592     11.9312
C     20.6772      7.8192     13.1100
C      6.4405      7.1172     -0.5289
H      4.5237      3.6401      1.1674
H     17.6169     10.3237     14.7063
H      1.4209     -0.4770      3.3480
H     15.6314     10.6650     15.5023
C      7.2572      6.3272     11.3899
C      7.5665      5.8912      3.4187
H      8.2405      7.8135      2.6073
C     -0.9712      6.5674      5.3373
H     15.8393      8.3160     20.7380
H      3.1113      0.1637      1.7758
H     -7.2598     11.8987     11.1514
H     15.7783      7.7952     13.1674
C     -3.1715     11.4575      7.4234
C      5.4745      5.6684      9.6930
C     15.9010      7.5438     18.0938
C      4.5450      6.1164      0.2657
C     17.7408      9.3276     15.3756
H     -3.4138      7.2173      5.5439
H      8.0310      8.1069      4.2345
H     -9.7085     13.6992     10.3765
H     -6.4079     12.6770      9.8071
H     18.2039     12.3578     16.8186
C      0.2578      3.2944      8.5372
C     13.3550      8.3844     12.4938
C      1.5747      1.5984      7.5984
H     -2.9947      7.9185     10.2056
C     -0.4783      6.3634      1.5742
H      5.6490      7.8904     -0.8417
H     -3.1195      2.6512      3.9077
H     -8.3962     10.4951     11.7108
C      9.9981      7.5288     12.5978
O     14.7012     11.0831     13.4203
C     -6.4070      8.6990      8.6458
C     16.8618      8.3411     20.3986
C     -9.4845     14.1871      9.2110
C      2.9496      1.9323      4.6905
H     -2.3468     11.1725      1.9670
H     -2.1954     10.0836     -0.3284
H     -7.1441     12.6139      6.9666
H     -9.9319     16.5003     10.9599
C      3.9485      3.4549      2.9419
C     -2.0938      8.1986      0.5351
C     11.1870      7.3157     11.4520
H     -2.7453      9.3341      7.2858
C      5.2515      2.4282      4.9220
H      4.2021      0.3506      5.6789
H     -4.3857     12.9631      7.4078
C    -10.4066     12.1585      8.6115
C     -8.0780     11.5245      8.6463
C     -2.1111      5.2842      3.7543
C     16.7943      9.5297     19.6222
C      2.4681      3.6877      2.6906
C     -8.1624      8.2007     10.3275
H     16.0482      8.8411     14.5332
H     -2.5641      5.3045      1.7670
H      2.0582      3.5771     -0.8637
O      5.5865      6.5333      6.6140
C      0.7036      8.1755      4.5825
H     -8.6835     10.4764      7.9723
C     -2.7345      8.5393      3.3915
C     -1.7978      7.7051      3.1623
H     -7.0515      7.9256      8.0656
C     -2.6181      7.4396      7.7618
H      2.4656      4.3716      5.0549
H     14.1576      8.9210     10.3536
H      6.0245      1.7602      1.3526
C      2.8916      1.9377      1.0109
C      0.1681      8.4864      2.2029
C     -0.6017      2.9237      1.4188
C     -0.4146      4.0147      3.9954
C     -5.6167     10.8866      7.4724
H     -3.5556      6.8201      7.4261
H     15.8639      9.8536     19.0163
H     -0.0459      6.0072     -0.2797
O      0.0808      9.7228      6.0535
C     -6.7992     11.9069      7.9657
C      1.0052      6.9088      6.9349
C     15.3282      8.1049     14.1462
H     15.4002      8.5623     16.0823
C      0.7609      7.5721      3.1630
H     -4.2308     13.0652      9.4960
C      2.6064      0.9819      3.6351
C      0.3427      2.2592      7.4193
C     -2.8693     10.1609      6.6289
C     -2.8712      3.4191      4.7698
C     18.2838     11.9325     17.7711
C     -9.7813     16.6138      9.9058
C      0.6717      2.7193      0.8813
C     -1.1184      7.6870      1.5856
C     -9.1015     12.3689      8.2040
N      2.2263     -0.1474      4.0808
H      3.5153      2.2359     -1.0526
C      2.7308      1.7994     -0.4946
O     16.9292      5.7579     15.6543
C      9.6451      6.2848      0.3052
H     18.9514      9.5125     19.4958
H     -0.4030      1.6553      7.7603
C     -3.0620      5.1012      2.6419
C     -3.0547      7.4416      9.1101
H      1.6280      0.9535      6.4804
H      7.0719      4.6497      0.4581
H     -4.4779      9.0175      7.7088
C     -1.9680      9.5532      0.5572
H      4.7631      5.4105     10.4599
H      1.5987      6.0793      9.1228
H     -0.9587      9.8254      4.1807
H     14.8901      9.9137     11.5187
H      1.7808      2.3505     -0.3092
H     -0.5912      3.1938      9.2894
C     15.0850      7.4776     15.5634
H     -0.8498     11.0061      1.3824
C     14.1928      8.9968     11.4975
C     -7.2613     10.8697     11.6433
H     15.5364     10.5264     17.6184
C      4.3113      8.0959      4.5883
C      7.7506      7.3089      3.4348
C     21.4385      9.7647     14.6704
C     19.0047      8.7184     15.0306
C      4.4216      5.9815      6.2288
C      1.8730      4.9958      2.1981
C      5.9051      6.3677      0.5040
C      5.6518      7.7424      4.3927
C      8.4326      6.5036      0.8108
C      4.1712      4.9262      7.6054
C      1.6554      5.2418      0.8328
H     -2.3039      5.4547      6.7626
C      6.3673      7.2923      5.6143
H     10.3347      5.1861      0.2154
C      7.1185      5.5567      1.0581
H     -1.0402      3.3268      3.3105
O      7.4633      7.4982      6.1986
H      8.8034      9.2263     11.2576
H     22.1134     10.0078     13.8100
H      1.8853      3.4630      3.5781
H     -0.1763      9.5932      2.7051
H      2.2071      5.6545     -0.8432
H      5.1475      5.6891      4.3612
C     12.4959      7.5383     11.6095
C     15.7123      6.0910     15.7575
H      3.0866      7.2137      9.3164
C     -1.9294      4.3677      4.7724
C      0.5067      6.8454      5.4901
H     17.6839      8.0599     20.8871
H      1.9441      2.3432      4.8079
C      1.2816      5.6132      4.8855
H    -10.7476     11.2834      8.4918
H      1.2849      1.0173      1.9255
H     16.4231     11.1035     16.2359
C     -4.9442      5.6685      9.1723
C     -8.6227     13.7145      7.9926
C      6.4301      7.9176      3.2005
C     -3.7914      9.5254      5.4689
C     -0.0896      6.2209      3.0162
C     -1.3306      6.4855      3.7784
H      3.9347      6.8143     -0.2247
H     -3.2274      3.0688      5.8237
C    -10.9231     13.6275      8.7100
C      0.6831      4.9521      3.4513
C      4.8653      3.3007      2.0422
H      1.5125      4.2378      8.1193
H     -5.9424      7.6523      9.0867
H     -2.4436     12.0216      7.4897
H     -5.3110     10.8536      6.4372
C      2.1739      6.8537      8.7584
C     -1.6284      5.2874      5.9733
C      2.4600      0.9500      2.0961
C      1.0851      4.5034      5.7964
C      2.2034      6.3688      7.4186
C      2.3207      4.4888     -0.3249
H     -1.4477      5.7815      1.5457
H      4.0282      1.6118      1.3395
H      3.1073      0.8309     -0.7960
H     -1.9466     10.3724      6.0542
H      4.9882      0.8814      3.3308
C     -0.4153      9.0854      4.9528
C     -4.3418      6.9859      9.5459
H      4.1292      5.2792      0.9377
H     20.8827     10.5589     15.6110
C     -4.4323     11.6073      7.8605
H     -3.4654      6.0947      2.5335
H     -3.6481     10.1204      4.5551
H     -7.1446     14.7906      8.9325
C     -0.1408      7.2336      7.6767
C      0.4325      3.3606      5.2664
O      8.2545      5.3477      4.2892
C     -1.3913      8.1383      5.6687
C     -6.6579     14.7027      6.9691
C      5.1480      1.9582      6.1985
C      3.2147      0.8311      5.8303
H      8.1690      6.0896      4.9267
H     -6.1633     15.6757      7.1003
H      5.8109      3.5993      8.4504
H     -4.8996      9.8838      9.2821
H     -0.4997     10.2233      6.7834
H     18.8644     12.4086     18.3249
C      1.8662      4.6306      7.0928
H     -1.0499      4.0378      1.5555
C      4.0112      5.3601      4.9636
C     -9.6176     15.5568      9.0520
H     21.4984      8.9065     15.3719
C      8.3768      7.2004     10.8661
H      3.5668      5.5502      8.4099
H     10.9562      6.7505     10.5512
H     -5.8592     14.1327      6.7679
C      4.0201      2.9278      4.3957
C     17.9990      9.8267     18.9658
C     -6.1496     12.8707      8.7570
C     -5.1787      9.4619      8.4042
C      5.4096      4.7682      8.3820
C     -7.1025     14.0140      8.2249
H     -0.2156      4.2666      7.9601
H      3.2485      4.1594      0.0321
H     19.7487      9.6826     13.0891
H      7.8864      5.5287     11.8303
H     -1.2607      2.9516      6.2987
C     14.4844     10.0058     13.9330
H    -10.2781     17.6229      9.3424
H     -2.3683      9.6905      3.2320
266

C     20.2314      8.9586     14.1912
N     -1.7847     10.4592      1.5214
C      3.8412      1.7105      6.9772
C      1.8561      2.4578      1.4650
C      7.4740      4.9490      2.6986
H     -3.6972      3.8795      3.3552
C      6.9424      3.9279      3.1917
C      3.5311      4.1110      5.2562
C     -6.2117      9.6245     11.3003
C     16.0505      7.1939     19.5266
C      6.0094      1.5221      3.7951
C     -6.7834      8.4667     10.4874
C     13.8833      8.5622     13.7229
N     -0.2551      2.2954      6.0376
C      0.5001      5.9727      0.5854
O     -1.5217      3.0061      1.2004
C      2.9746      4.1276      6.9546
C     15.7008      6.1649     17.6329
C     16.5951     10.4339     16.7890
H    -11.6392     13.4612      9.3832
H     -3.1804      3.0279      4.2343
H     17.5543      5.5847     15.5968
H     -6.5391     11.4193     12.5991
C     16.9384      9.0326     16.3009
H     -8.3794      7.3821     11.1379
H     -5.9075     10.1655     10.4956
H      7.3629      3.3977      4.1854
H     13.0131      7.4387     10.4531
H     -0.3713      5.2099      6.3563
C      2.7602      2.5908      7.3746
H      6.7736      0.6203      3.7862
O     14.6968      9.8946     15.4491
C     -4.8376     13.1172      8.2688
C      6.6356      5.7959     10.0128
H      2.5568     -0.3357      5.7890
H      1.5830      7.8200      9.3785
C      6.2124      2.6723      2.6547
H      6.1570      5.2440      7.9570
H     -5.1527      9.5294     11.0696
H     -8.0791     10.6725      9.3817
H     -8.1325      7.1115      9.3090
C     17.6605     10.8878     17.5928
C     -2.9634      8.1959      5.2055
O      1.9604      8.5972      4.8030
C     -1.5406      8.1334      7.3454
C      8.8744      8.0891     11.8712
C     20.7914      7.8365     13.0614
C      6.6157      7.2455     -0.5153
H      4.7869      3.3947      1.2307
H     18.0501     10.0058     14.4575
H      1.6332     -0.8101      3.0815
H     -6.3133      6.4554      8.3485
H     13.8536      9.8340     15.8584
C      7.0759      6.2765     11.3195
C      8.2441      5.7732      3.6504
H      8.7683      7.2739      1.6476
C     -1.1872      6.7205      5.3469
H     15.7679      8.3151     20.8456
H      2.9233     -0.5483      2.0460
H     -7.4427     11.4401     10.9562
H     15.4414      7.3945     13.1722
C     -3.0087     11.6032      7.2851
C      5.3654      5.1895      9.8122
C     15.9770      7.6141     18.0405
C      4.7816      5.9054      0.4624
C     18.0378      9.2469     15.2919
H     -3.5031      7.1948      5.2929
H      8.5165      7.9787      3.5064
H     -9.8309     14.2137     10.4110
H     -6.0571     12.4832      9.8353
H     17.8337     12.0880     16.4927
C     -0.6754      3.1855      8.4474
C     13.3122      8.5589     12.2937
C      1.5850      1.8615      7.4223
H     -2.5650      8.2813      9.7463
C     -0.4462      6.2116      1.4733
H      5.9597      8.1133     -0.5345
H     -2.2840      2.0803      4.7490
H     -7.8885     10.5964     12.5662
C     10.3901      7.4992     12.4653
O     14.3059     11.0813     13.5505
C     -6.5907      8.8284      9.0513
C     16.5494      8.4472     20.2049
C     -9.8459     14.2269      9.2660
C      2.7996      1.6626      4.5354
H     -0.9443     10.6560      1.0262
H     -2.2739      9.6284     -0.5495
H     -6.6656     12.1825      6.8344
H    -10.0014     16.2973     11.1330
C      3.8826      3.0516      3.0272
H     -4.3462      9.2137      6.5357
C     -1.7455      8.3253      0.5576
C     11.1301      7.1110     11.3146
H     -2.2576      9.6609      6.9557
C      5.3050      1.9293      4.9267
H      4.1010      0.1361      5.1792
H     -4.4094     14.0181      7.4522
C    -10.5024     12.2154      8.3309
C     -8.1865     11.2052      8.4287
C     -1.8739      5.1346      3.6622
C     16.6978      9.8506     19.5607
C      2.4575      3.3810      2.7541
C     -7.8973      7.6905     10.2967
H     15.5602      8.8678     14.5725
H     -2.8069      5.0968      1.9867
H      2.3681      3.7646     -0.5717
O      5.6275      6.7662      6.5973
C      0.6431      8.0300      4.7026
C     -2.6182      8.6821      3.6928
C     -2.0742      7.6041      2.9999
H     -7.3757      9.5850      8.8818
C     -2.9553      7.7389      7.9542
H      2.5209      4.4066      4.8443
H     14.4759      8.4530     10.6247
H      7.0770      2.4066      1.6645
H      0.0915      3.7545      9.2529
C      2.9141      1.7237      0.8780
C     -0.0587      8.5312      2.0267
C     -0.3676      3.1347      1.6534
C     -0.0449      3.9733      3.9982
C     -5.4895     10.7593      7.7946
H     15.6998     10.2673     19.3962
H      0.5183      6.1733     -0.5801
O     -0.1702      9.6344      6.1429
C     -6.8629     11.6869      7.9737
C      0.5240      6.9672      6.8807
C     15.1577      7.9302     14.0573
H     15.7005      8.1581     16.1278
C      0.7114      7.7289      3.1041
H     -4.2022     13.5605      9.0520
C      2.4603      0.7049      3.2458
C      0.1814      2.0750      7.4873
C     -2.5836     10.4258      6.4538
C     -2.4426      3.1114      4.9266
C     18.0377     12.1691     17.6123
C     -9.9601     16.7009     10.0626
C      0.5861      2.2117      1.0320
C     -1.4097      7.4402      1.6810
C     -9.1587     12.3960      8.3885
N      2.0026     -0.2977      3.7761
H      3.7945      2.1942     -0.9527
C      2.7769      1.7085     -0.5937
O     17.0085      6.4178     15.5874
C      9.9082      6.2758      0.3303
H     18.6312      9.0637     19.0293
H     -0.2778      1.0448      7.6481
C     -2.7761      4.4795      2.9350
C     -3.3466      7.8392      9.2183
H      2.4719      1.1291      6.6912
H      7.8823      4.7171      0.8723
H     -4.4807      8.9989      8.2342
C     -2.1713      9.5344      0.5273
H      4.8941      5.7877     10.5055
H      2.4828      6.2974      9.3923
H     -0.9052      9.3150      4.2436
H     14.9533      9.7000     11.8532
H      1.8389      2.1809     -0.9265
H     -0.8394      2.3241      9.2795
C     15.0245      7.4091     15.6603
H     -1.6902      9.8435      2.4568
C     14.2783      9.1448     11.4763
C     -7.0805     10.9038     11.8549
H     15.5767     10.8808     17.2364
C      4.2934      8.2555      4.5218
C      7.8740      7.1673      3.5302
C     21.3380      9.3792     14.9291
C     19.1786      8.4864     15.1773
C      4.3299      6.1738      6.6424
C      1.9285      4.9071      2.6378
C      6.0924      6.2063      0.6284
C      5.7517      7.5645      4.4495
C      8.4624      6.7260      0.7552
C      4.1016      4.9177      7.6132
C      1.2806      5.0100      1.1861
H     -2.8975      5.4212      6.0388
C      6.5112      7.2025      5.5880
H      9.7220      5.2756     -0.0259
H      0.1518      1.9048      0.0801
C      7.3489      5.5685      1.0840
H     -0.3046      2.9072      3.3154
O      7.7130      7.4950      5.9497
H      8.6660      9.1579     11.4020
H     22.2014      8.5704     14.5117
H      1.7258      3.1177      3.4253
H      0.1244      9.4618      2.4347
H      2.8354      5.4688     -0.2554
H      4.8243      5.1193      4.4236
C     12.5521      7.6221     11.4629
C     15.6089      6.1433     16.0994
H      3.0291      7.7467      9.0956
C     -1.4801      4.3221      4.8057
C      0.4610      6.7444      5.3773
H     17.2835      8.1988     20.7141
C      1.1879      5.5925      4.8802
H    -11.0386     11.4608      7.9822
H      1.5805      0.2356      1.4120
H     16.5260     11.2104     16.0128
H      0.1104      7.5381      8.8856
C     -5.4175      6.1518      8.9777
C     -8.6331     13.9735      8.4691
C      6.6427      7.8112      3.3310
C     -3.6385      9.4257      5.9146
C     -0.1858      6.2744      2.8778
C     -1.3103      6.5086      3.6828
H      4.0492      6.0925     -0.3076
H     -3.1534      3.2262      5.8641
C    -10.9974     13.7327      8.5673
C      0.5760      5.1910      3.5716
C      4.8832      3.0128      2.2970
H      1.4930      4.8570      8.2767
H     -6.8981      7.9699      8.3468
H     -2.0064     12.4360      7.2862
H     -5.2150     10.3761      6.8677
C      2.1836      7.0498      8.8411
C     -1.5918      5.2469      6.0582
C      2.5941      0.4084      1.5984
C      0.8739      4.5128      5.8773
C      1.9285      6.8172      7.3791
C      2.3979      4.6217      0.2372
H     -0.8759      5.2126      1.1792
H      3.9061      2.0425      1.3402
H      2.5041      0.6809     -0.9093
H     -1.9086     10.7576      5.7713
H      5.0677      1.1762      3.0485
C     -0.4482      8.8139      5.1046
C     -4.6399      7.1864      9.6269
H      4.0853      5.7133      1.3590
H     22.0584     10.3353     14.5990
C     -4.2077     11.6289      8.1789
H     10.4547      6.3038      1.2844
H     -4.3872      9.6969      5.1772
C     -0.3343      7.5921      7.8410
C      0.4693      3.2218      5.3279
O      8.8480      5.1867      4.5638
C     -1.6137      7.9540      5.9029
C     -6.5031     14.3902      6.9703
C      5.3893      2.0628      6.1829
C      3.0701      0.6947      5.6267
H      8.5774      5.6113      5.3878
H     -5.5496     14.7934      7.2458
H     -4.5818      9.6283      9.4379
H      0.5070      9.2400      6.7796
H     18.6632     12.7346     18.5017
C      1.6576      4.8154      7.0964
H     -0.4230      4.2819      1.8828
C      3.9739      5.4468      5.3148
C     -9.7816     15.7970      8.9113
H     21.3084      9.3507     15.9752
C      8.3519      7.2585     10.9530
H      3.3836      5.4670      8.3703
H     10.7457      6.7919     10.3313
H     -6.1990     13.4971      6.6550
C      3.9564      2.5847      4.5079
C     17.7538     10.0236     18.6907
C     -6.3738     12.8414      8.9104
C     -5.2625      9.5411      8.6705
C      5.3344      4.6006      8.3394
C     -7.0138     14.1205      8.5217
H     -1.4230      3.8885      7.8259
H      3.1291      3.8229      0.7306
H     19.9311      9.8989     13.7927
H      7.3972      5.4367     11.9642
H     -1.2125      2.9125      6.2259
C     14.2974     10.0067     14.0523
H     -9.0304     17.3440     10.2636
H     -2.8452      9.6906      3.3422
