266

C     19.9183      9.0960     14.1152
C      3.9917      1.8115      6.7986
C      2.1771      3.2087      1.0990
C      7.0935      4.9168      2.5198
H     -2.3795      3.2895      2.4219
C      7.3004      3.4523      2.9008
C      3.0278      4.1376      5.3129
C      6.7095     -3.1830     10.3964
C     16.0005      7.3227     19.3930
C      5.8009      1.8669      4.1021
C      6.2543     -4.4729      9.9056
C     13.8574      8.6626     13.7226
N     -0.2997      2.7454      6.8991
C     13.3787     -6.9740      0.5253
O     -1.2924      2.1473      2.4005
C      3.0758      4.0470      6.9681
C     15.3468      6.2526     17.5316
C     16.7529     10.8466     16.5927
H      1.4147      0.9852      9.8433
H     -3.3861      3.5181      5.4149
H     17.0011      6.3029     16.8841
H      6.5762     -1.3447     10.2880
C     16.9157      9.3071     16.3224
H      7.5782     -2.8002      9.4508
H      8.3016      3.4757      3.2126
H     12.5946      8.0590     10.4646
H     -1.1017      5.0993      6.6119
C      2.9467      2.6786      7.5395
H     10.1053     -3.0264      0.0471
H      6.5657      1.2239      3.9827
O     14.6989     10.2240     15.2594
C      8.0434     -0.4469      8.8163
C      6.6592      6.0777      9.8194
H     16.1150     -5.9200      8.9928
C      6.2014      2.6428      2.6503
H      7.2876     -3.5175     11.3651
H      5.0646     -2.3936      8.4769
H      4.8206     -6.0563     10.0921
C     17.6433     11.0251     17.7356
C     10.2150     -4.1575      4.7956
O     14.7240     -4.4234      4.8716
C     11.3975     -5.2357      6.9733
C      8.8063      8.3183     12.0100
C     20.2309      7.8311     13.2896
C      6.2374      7.2439     -0.6260
H      4.7901      3.8682      1.1990
H     17.6453     10.4989     14.6318
H      1.1207      0.3800      2.9671
H      7.7305     -6.7185      7.7991
C      6.8358      7.0834     10.8658
C      8.0136      5.6400      3.1783
H     21.2568      9.7066     15.3461
C     -1.2022      6.5178      5.0401
H     15.0782      8.5638     20.7209
H      4.6437      0.6095      1.8952
H      4.9197     -1.7837     10.4518
H     14.5383      6.7165     13.7233
C      9.6607     -1.0354      7.0859
C      5.7402      5.3534      9.1669
C     15.8255      7.4991     17.9974
C      4.5482      6.4473      0.7906
C     17.6665      9.3424     15.2068
H      9.5416     -4.9780      4.9790
H      8.2810      7.7793      3.2810
H      3.6353      0.8588     10.3280
H      6.2423     -0.4651      9.3875
H     17.6360     12.8908     17.3321
C      0.1106      4.0856      9.1423
C     13.4457      8.2085     12.1756
C      1.6735      1.9142      7.6526
C     12.3339     -6.5868      1.3732
H      5.4308      7.8418     -1.0285
H     -2.6286      3.0100      3.7333
H      6.9459      3.9705      4.2803
H      6.0577     -1.9611     11.7035
C     10.1804      7.6946     12.7090
O     14.5970     11.0463     13.1774
C      6.6042     -4.2990      8.1897
C     16.1327      8.7209     20.0946
C      3.4132      1.1698      9.2073
C      3.3824      1.8776      4.5040
H     11.6540     -2.5290      1.0713
H      5.6558     -0.5274      6.6801
C      3.9105      3.7460      3.0459
H      9.3138     -3.6656      6.4539
C     10.9299     -4.5146      0.7451
C     10.9739      7.2811     11.5977
H     10.7312     -2.4688      7.3908
C      5.3619      2.7892      4.9728
H     18.8876     12.4264     18.3647
H      8.6007      0.3554      9.2107
C      2.3819     -0.6925      8.7439
C      4.8037     -1.5667      8.0755
C     -2.1999      5.0887      3.5038
C     16.2251      9.9265     19.3147
C      2.4319      3.6801      2.6380
C      4.8470     -5.0140     10.1126
H      2.8562     -1.1820      9.8986
H     16.0213      8.3533     13.6179
H     -3.4927      4.9395      1.7471
H     14.8017     -8.8367     -0.8983
O      5.4673      6.8610      6.3505
C     13.6215     -4.9045      4.3845
H     15.9768     10.7037     19.9325
C     10.5176     -4.1842      3.4088
C     10.7420     -5.4184      2.8949
H      5.5629     -4.0628      7.7096
C      9.9917     -5.2509      7.5522
H      1.5600      2.4927      5.2758
H     14.5509      8.2530     10.6603
H      6.3544      1.5041      2.1369
H      1.1208      4.3762      9.4364
C      3.4389      2.0179      0.6853
C     13.0275     -4.5513      2.0206
C     -0.4544      3.0367      1.8819
C     -0.3004      3.8386      4.2777
C      7.3388     -1.9736      7.1295
H      1.6321      0.2200      4.5566
H      9.0923     -5.2454      6.7789
H     15.4225     10.0232     18.3800
H     13.2713     -6.6182     -0.5102
O     12.8569     -3.5008      6.1170
C      6.0008     -1.0420      7.5021
C     13.6622     -6.1378      6.8972
C     15.1249      7.8907     14.0826
H     15.7745      8.2675     16.2232
C     13.5492     -5.4444      2.9231
H      7.9538     -1.2917      9.7763
C      3.0371      1.4098      3.1755
C      0.3678      2.4841      8.2784
C     10.6133     -2.0594      6.5556
C     -2.7140      3.1804      4.7839
C     18.3373     12.0796     17.4957
C      3.3013      4.0720      9.6821
C      0.8507      2.4020      1.4283
C     11.6511     -5.2891      1.6874
C      3.7978     -0.7190      8.2153
N      1.8740      0.1547      3.5469
H      3.9974      1.3874     -1.2504
C      3.2917      1.3508     -0.5413
O     17.0534      6.1658     15.9419
C      9.4757      6.6089      0.6102
H     18.3126      9.3795     19.2281
H     -0.4587      1.6374      8.8222
C     -2.6479      4.4557      2.3624
C      9.9211     -4.8855      9.0531
H      1.7457      1.1899      6.8905
H      7.1868      4.6556      0.5377
H      7.2227     -3.6962      6.1384
C     10.7922     -3.1834      0.8453
H      4.3254     -4.4477      9.2956
H     14.2964     -5.3461      8.9282
H     12.0011     -3.2326      4.1831
H     15.1896      9.1160     12.3268
H      2.6034      1.7323     -1.2032
H     -0.4798      4.1544      9.9917
C     15.1264      7.6234     15.4081
H      5.2944      5.1513     10.1091
C     14.7515      8.3065     11.6790
C      5.9103     -2.0168     10.7574
H      2.9966      3.7013     10.6657
H     15.7174     11.2467     17.1794
C      4.3905      8.4926      4.4938
C      7.9275      7.0054      2.6436
C     21.0312      9.9098     14.2486
C     18.9393      8.7310     15.0524
C      4.1190      6.3217      6.3763
C      1.6348      5.0307      2.4894
C      5.8159      6.2893      0.5181
C      5.7547      7.6327      4.3138
C      8.0159      6.8467      1.1663
C      4.1782      5.1538      7.3403
C     14.3005     -7.7437      1.1005
H     -2.9266      5.2734      6.0572
C      6.4431      6.8686      5.3384
H      9.3621      5.6684      0.3247
H      1.1275      1.5790      2.1705
C      7.1643      5.5738      1.0201
H     -0.0617      3.1773      3.1904
H     10.9751     -4.6613      9.4136
O      7.5739      6.6602      5.7125
H      9.2934      8.9497     11.1641
H      2.0232      3.2369      3.5343
H     12.4330     -3.4821      2.3081
H     16.4611     -8.2719      0.4666
H      4.6366      5.2031      4.5583
C     12.2263      7.8298     11.3203
C     15.6617      6.4515     15.9948
H     15.0762     -7.1407      9.3096
C     -1.7175      4.2851      4.5855
C      0.3229      6.6614      5.4372
H      4.7686     -4.5909     11.1440
H      2.7786      0.0701      6.0060
C      1.1436      5.6276      4.7529
H      2.6259      0.2173      1.7998
H     16.9455     11.4490     15.7907
H     12.3580     -6.2551      8.7429
C      7.6723     -6.2918      8.9918
C      4.3368      0.8261      8.1515
O      6.0167      4.2987      4.9547
C      6.4130      7.6609      2.9882
C      9.8018     -3.0528      5.7096
C     12.8573     -6.7055      2.9639
C     -1.4861      6.4260      3.5407
H     17.0837      8.4926     20.4447
H      4.6879      7.5104      1.0855
H     -2.0453      2.4473      5.3672
C      2.0103      0.8268      8.8982
C      0.3818      5.1379      3.6953
C      5.1336      3.7590      2.4257
H     14.2098     -8.3871      7.9733
H      8.0832     -4.3806      9.4256
H      8.2222      4.7829      5.0422
H     10.5356     -0.4665      7.5997
H      7.3571     -1.4078      6.1652
C     15.1761     -6.2188      8.8633
C     -1.7949      5.3147      5.7462
C      3.5319      1.0100      1.9518
C      1.4301      4.4068      5.5337
C     14.8786     -6.6616      7.4880
C     15.2579     -8.5980      0.2697
H      3.8410      2.9990      0.4629
H      3.0246      0.1341     -0.7619
H     11.1848     -1.3065      5.8097
H      4.9922      1.2029      3.8315
C     12.3728     -4.0081      4.9717
C      8.5535     -5.3352      9.5597
H      4.0422      5.8983      1.4594
H     21.9099      9.5709     13.6476
C      8.5599     -1.2277      7.7705
H      8.9573     -2.6077      5.1732
H      5.7810      2.1344      9.0523
C     12.5875     -5.6435      7.5911
C      0.7555      3.1648      5.2920
O      8.6368      5.2108      4.3186
C     11.3601     -5.0230      5.4128
C      6.2643      2.0072      7.3275
C      5.2974      2.2789      6.3494
C      3.3158      1.0891      5.6742
H      6.6029     -5.3503      8.1919
H      8.4483     -3.7740      7.4941
H     12.2895     -3.3245      6.8031
H      1.8575     -1.4350      8.3254
C     14.7910     -8.0883      7.1685
H     -0.6458      4.2218      1.7538
C      3.7911      5.4907      5.1326
C      3.3815      2.8352      9.1321
H     20.7029     10.8583     14.3743
C      8.2828      7.2487     11.1512
H      3.7548      5.6574      8.3965
H     10.4022      6.8732     10.7613
H      7.0708      1.2313      7.0370
C      3.8338      3.1624      4.4608
C     17.4814      9.7335     18.4765
C      6.6246     -0.0904      8.5105
C      7.4619     -3.4097      7.2151
C      5.6505      4.8825      7.8498
C      5.6614      1.3035      8.3817
H     -0.1808      4.5917      8.3420
H      1.0334      1.5121      0.6039
H     19.7672      9.8893     13.3447
H      8.9575      6.3814     11.4146
H     -0.7734      3.6565      6.9284
C     14.2577     10.1547     14.0918
H      2.9285      4.5817      8.8822
H     10.7020     -3.3325      2.7653
