262

C     19.9877      8.8718     13.9574
C      4.0052      1.5818      7.0058
C      1.8449      2.9258      1.2357
C      7.1235      5.0441      2.6239
H     -2.1990      3.4588      3.1177
C      7.3497      3.7336      3.0718
C      3.1630      3.9403      5.3535
C     -6.0218     10.3008     10.2356
C     16.3715      7.1431     19.3735
C      5.8321      1.7706      4.0358
C     -7.0629      9.4559      9.2536
C     13.7755      8.8939     13.8376
N     -0.1943      2.7773      6.1985
C      0.5047      5.6555      0.4787
O     -1.3503      2.1996      1.6574
C      3.1895      4.1005      6.9128
C     15.4952      6.1887     17.5675
C     16.7372     10.4192     16.6655
H    -11.2359     13.6528      9.7210
H     -3.6472      3.5674      4.8130
H     17.4097      7.2890     15.7170
H     -6.2303     10.6438     12.2013
C     16.9704      8.8981     16.2755
H     -8.0776      8.8788     10.7744
H     -5.7096     10.8356      9.5259
H      8.0368      3.7463      4.0964
H     13.0119      7.1920     10.9963
H     -0.9291      5.2683      6.6794
C      3.0052      2.7196      7.5506
H      7.0663      1.2646      4.1522
O     15.2612     10.4894     15.0403
C     -4.9005     12.6615      8.4798
C      6.8138      5.8853      9.7494
H      2.4008      0.3395      6.6182
H      2.9904      6.5824      9.4674
C      6.0787      2.8630      2.9054
H      6.0913      4.9446      7.5375
H     -5.1506      9.4529     10.4161
H     -8.2299     11.0399      9.4464
H     -8.5932      7.8189      9.4715
C     17.4875     10.7936     17.8359
C     -2.8713      8.5602      5.3862
O      1.8305      8.8856      4.8808
C     -1.3668      7.6505      7.2292
C      8.8716      7.8644     12.1052
C     20.4672      7.8118     13.0242
C      6.4471      7.1612     -0.7550
H      4.9944      3.7593      1.5873
H     17.6714      9.9702     14.4588
H      1.2997     -0.9601      3.1218
H     -5.3328      6.2731      7.6611
H     15.4569      9.6522     14.9065
C      7.2281      6.3748     11.1697
C      7.5943      5.7017      3.7465
C     -1.0396      6.7512      5.1783
H     15.1084      8.7122     20.4438
H     -7.0282     11.9232     11.5816
H     15.1261      7.1122     13.0020
C     -3.0051     11.2707      7.9371
C      5.5967      5.4247      9.4823
C     15.9276      7.6767     18.0198
C      4.6168      5.8858      0.6181
C     17.7570      9.1688     15.0739
H     -3.9456      8.1218      5.8192
H      8.2660      7.4023      4.0436
H     -9.0326     14.4098     10.4867
H     -6.6515     12.4130      9.9670
H     17.6391     12.4910     16.7449
C      0.0883      3.8029      8.6570
C     13.4003      8.5289     12.4108
C      1.8287      1.9130      7.6574
H     -2.2402      7.7097     10.0982
C     -0.8092      6.2702      1.3230
H      5.8202      7.8760     -1.3731
H     -2.2132      2.4548      4.4800
H     -8.0107     10.4582     11.3425
C     10.0051      7.2876     12.6427
O     14.3059     11.2591     13.2335
C     -6.3832      8.7632      7.9959
C     16.2633      8.5312     20.1467
C     -9.4826     14.3738      9.3814
C      2.8963      1.5323      4.8172
H     -1.7389     10.0125     -0.9096
H     -7.1950     12.2669      7.2388
H     -9.5451     16.5539     11.1253
C      3.6868      3.2396      3.0300
H     -3.9939     10.3696      5.7002
C     -2.3511      8.5198      0.3624
C     11.1179      6.9668     11.8158
H     -2.1203      9.4904      7.9141
C      5.1020      2.3445      5.1093
H      4.1182     -0.0526      5.7140
H     -4.7473     13.7235      7.9675
C    -10.1951     12.4938      8.3301
C     -8.0879     11.1918      8.4240
C     -2.1886      5.1364      3.7216
C     16.6905      9.7583     19.5955
C      2.1864      3.3408      2.6202
C     -7.6651      8.3280     10.0085
H     16.4610      8.3076     13.9686
H     -2.9497      4.6274      1.8143
H      2.3898      3.9253     -0.7536
O      5.8132      6.3227      6.4045
C      0.4936      8.3750      4.4684
H     -8.6394     10.1821      8.1858
C     -2.6870      8.7418      3.9483
C     -2.3453      7.7142      2.9657
H     -7.0717      8.4602      7.1911
C     -2.5954      7.5723      7.8628
H      2.1205      3.9745      5.2209
H     14.1097      8.5780     10.2641
H      6.0643      2.1218      2.0168
H      0.9695      4.2452      9.2854
C      2.8230      1.9022      1.2258
C     -0.3505      8.4757      1.8452
C     -0.5572      3.0513      1.3387
C     -0.1981      4.1125      4.0911
C     -5.5430     10.8226      7.1347
H     -3.7068      7.5847      7.4559
H      0.7705      6.0497     -0.5427
O      0.3001      9.4236      6.5014
C     -6.7725     11.5758      7.9592
C      0.8460      7.2098      6.9400
C     15.1789      7.9019     14.0377
H     15.8149      8.4097     15.9401
C      0.3810      7.6010      2.9611
H     -4.0456     12.5930      9.2685
C      2.4501      0.5619      3.4295
C      0.4414      2.7736      7.6769
C     -2.3621     10.4419      7.1213
C     -2.6393      3.1444      5.2096
C     18.0005     12.1201     17.8245
C     -9.5436     16.7635      9.9411
C      0.5478      2.5791      0.4787
C     -1.6782      7.6770      1.5722
C     -8.9316     12.3397      8.2926
N      1.6402     -0.3205      3.8025
H      3.7916      0.5331     -0.0179
C      3.0546      1.3140     -0.1384
O     16.9361      6.4560     15.7462
C      9.5100      6.2474      0.6952
H     18.5251      8.9585     18.7747
C     -2.9743      4.4177      2.8787
C     -2.7850      7.5473      9.2853
H      1.6774      1.2074      6.7116
H      6.6531      4.4338      0.6108
H     -4.5928      8.8460      7.1977
C     -2.5866      9.6411     -0.1394
H      4.5622      5.9603      9.9556
H      2.4079      8.1735      8.7807
H     -1.1534      9.7940      5.2296
H     15.0185     10.0028     11.7276
H      3.5986      2.2802     -0.6988
H     -0.7730      3.4713      9.3187
C     14.7637      7.4926     15.6765
C     14.4681      9.0373     11.4283
C     -6.9697     10.7279     11.3089
H     15.5985     10.4668     16.9778
C      4.3742      7.9193      4.2764
C      7.6739      7.0022      3.2620
C     21.0624      9.4734     14.9313
C     19.0884      8.3893     14.9471
C      4.2641      5.9338      6.2522
C      1.6640      5.0071      2.6161
C      5.8059      6.2761      0.2606
C      5.8038      7.4349      4.4703
C      8.0344      6.4902      0.8335
C      4.0799      5.0576      7.4772
C      1.4455      5.1151      1.1777
H     -2.7513      5.9480      6.4081
C      6.5549      7.1477      5.7346
H      0.7698      1.5264      0.2141
C      6.9694      5.5910      1.0590
H     -0.6917      3.0801      3.9316
O      7.7678      7.3312      6.1230
H      9.2409      9.0035     11.9503
H      1.6756      2.7698      3.3799
H     -0.3961      9.4174      2.3552
H      3.5631      3.9286      0.7884
H      4.5068      5.0675      4.0322
C     12.4649      7.4325     11.9888
C     15.5751      6.1461     15.8403
H      1.7026      6.6747      9.6072
C     -1.9008      4.5255      4.9665
C      0.4948      6.9617      5.4741
H     16.9587      8.4038     21.1159
H      1.7573      1.6832      4.9495
C      1.2572      5.7737      4.9921
H      2.6143     -0.2651      1.5953
H     17.4204     11.0053     15.9621
H     -0.2709      6.8776      8.7943
C     -5.0898      6.2767      8.7548
C     -8.5235     13.6922      8.4317
C      6.2723      7.5155      3.1403
C     -2.9246     10.0978      5.7761
C     -0.3099      6.3625      2.8939
C     -1.6900      6.5445      3.8366
H      3.9010      6.5755      0.2787
H     -3.2115      3.3880      6.0453
C    -10.7454     13.7340      8.8352
C      0.4881      5.2872      3.5664
C      4.8360      3.4505      2.5575
H      1.8123      4.6299      8.2727
H     -5.9905      7.8084      8.3513
H     -2.2899     11.9665      8.6114
H     -5.6745     10.8065      6.1352
C      2.2600      7.0983      8.9344
C     -1.7456      5.5954      5.9848
C      3.0712      0.6030      2.0803
C      0.9529      4.7952      6.0233
C      2.1178      6.4331      7.4722
C      2.4997      4.0900      0.3893
H     -1.6491      5.6945      1.1582
H      3.8594      2.3052      0.9447
H      2.6514      0.5902     -0.7776
H     -1.3659     11.0253      6.9551
H      5.2435      0.8766      3.3509
C     -0.4423      9.0511      5.3997
C     -4.1199      6.9748      9.7568
H      3.7362      5.3658      1.2579
H     21.8585     10.0882     14.1061
C     -4.3229     11.6535      7.5313
H      9.9350      6.1384      1.7188
H     -2.5971     10.6947      4.9878
H     -6.6491     14.6172      9.2418
C     -0.2570      7.2014      7.7601
C      0.1773      3.8779      5.5502
O      8.6792      5.4718      4.4878
C     -1.5397      8.0272      5.8203
C     -6.6299     14.4533      7.1972
C      5.1434      2.1702      6.5473
C      3.2494      0.5748      6.1312
H      9.0103      6.3095      4.7350
H     -5.9097     15.4982      7.2871
H      5.2046      3.3486      8.1029
H     -4.7942      9.9578      8.5932
H      1.3168      9.5398      6.4784
H     18.6570     12.3542     18.6474
H    -11.0191     11.7631      8.2044
C      1.9026      4.9356      7.3108
H     -0.6448      4.1188      1.6931
C      3.7984      5.1941      5.0005
C     -9.4948     15.8218      8.9999
H     22.2385      9.0031     14.8627
C      8.3736      7.2100     10.9911
H      3.4897      5.6335      8.1520
H     11.2623      6.1055     12.2190
H     -6.6953     13.6392      6.1505
C      3.7218      2.7073      4.5340
C     17.6366      9.6038     18.6041
C     -6.2084     12.6138      8.8840
C     -5.3023      9.5884      7.6671
C      5.2481      4.5843      8.2120
C     -7.0947     13.9603      8.4974
H     -0.6807      4.6542      8.2558
H      0.7515      3.0771     -0.6424
H     19.2763      9.5671     13.4360
H      7.5039      5.4591     11.4514
H     -1.3700      2.6142      6.2673
C     14.3292     10.3079     14.0371
H     -9.9099     17.6456      9.4133
H     -2.9221      9.6681      3.4235
262

C     19.9990      8.9332     14.0222
C      4.0615      1.5132      7.0702
C      1.9047      3.0185      1.3165
C      7.0928      4.8592      2.5246
H     -2.3874      3.3881      2.9608
C      7.3204      3.7142      3.1091
C      3.0674      4.0433      5.3726
C     -5.9884     10.1682     10.3623
C     16.3577      7.1206     19.4224
C      5.8482      1.6195      4.0491
C     -7.0868      9.4266      9.4352
C     13.8138      8.8521     13.6997
N     -0.2048      2.7752      6.3068
C      0.5467      5.8807      0.5328
O     -1.4684      2.1412      1.6709
C      3.1059      3.9714      6.8765
C     15.5818      6.2438     17.3676
C     16.7951     10.3769     16.6838
H    -11.3962     13.5690      9.6235
H     -3.5895      3.4796      4.9825
H     17.4178      7.3195     15.5920
H     -6.5539     10.5325     12.4229
C     17.0714      8.9144     16.2552
H     -8.3938      8.8227     10.6857
H     -5.5079     10.8373      9.7121
H      8.0850      3.7501      3.8865
H     13.2014      7.2683     10.7964
H     -0.9920      5.5566      6.9378
C      3.0924      2.6865      7.4798
H      6.7695      1.1803      4.3109
O     15.3174     10.5100     14.9970
C     -4.8772     12.6595      8.4208
C      6.7485      6.0037      9.6681
H      2.1924      0.3413      6.2767
H      3.2067      6.4967      9.2226
C      6.0491      2.7184      2.8781
H      6.1034      4.3527      7.4501
H     -5.2545      9.6047     10.6645
H     -8.3162     11.0761      9.7183
H     -8.5613      7.9953      9.3910
C     17.6689     10.7325     17.7466
C     -2.8223      8.6520      5.3546
O      1.8876      8.8777      4.8713
C     -1.4039      7.6151      7.2841
C      8.7762      8.0237     12.0830
C     20.4743      7.8269     12.9834
C      6.3817      7.1823     -0.7398
H      4.8411      3.8441      1.3397
H     17.5892     10.1403     14.5481
H      1.3647     -0.9691      3.2176
H     -5.2210      6.5253      7.8311
H     15.9376      9.6531     14.9071
C      7.1333      6.5330     11.1655
C      7.4714      5.7002      3.7744
C     -1.1472      6.9284      5.2397
H     15.3217      8.7975     20.1222
H      4.1398      0.1789      2.0547
H     -6.8114     11.8197     11.3032
H     15.3401      7.0638     13.1317
C     -3.0465     11.5192      7.8728
C      5.5308      5.3560      9.4178
C     15.8772      7.6478     18.1513
C      4.6019      5.9366      0.6367
C     17.7508      9.2084     15.1349
H     -3.8681      8.3828      5.5228
H      8.1541      7.8430      4.0948
H     -9.4378     14.3175     10.4924
H     -6.6500     12.4762      9.8392
H     17.4839     12.7409     17.0883
C      0.0775      3.8532      8.6742
C     13.4398      8.5528     12.3743
C      1.8173      1.8849      7.5933
H     -2.2295      7.7836     10.1970
C     -0.8263      6.3811      1.2764
H      5.8545      7.8850     -1.7404
H     -2.1305      2.3578      4.8672
H     -7.9875     10.4648     11.1113
C     10.0158      7.4756     12.6964
O     14.3978     11.2378     13.1516
C     -6.4670      8.7452      8.1469
C     16.3077      8.4332     20.2242
C     -9.4094     14.3694      9.4476
C      2.8211      1.5100      4.8064
H     -2.1174     10.4881     -0.8084
H     -7.0628     12.3771      7.0348
H     -9.7463     16.4951     11.1776
C      3.6522      3.2471      3.1530
H     -4.0091     10.4397      5.4941
C     -2.2841      8.4594      0.2309
C     11.1738      6.9786     11.7030
H     -2.2117      9.4962      7.7648
C      5.1214      2.2552      5.1749
H      3.9996      0.0963      6.1001
H     -4.9544     13.8437      8.2981
C    -10.2902     12.3481      8.2087
C     -8.1283     11.1667      8.4798
C     -2.1640      5.0910      3.7590
C     16.5994      9.7632     19.4885
C      2.2154      3.5037      2.7721
C     -7.6778      8.2774      9.9504
H     16.0857      8.4528     13.9335
H     -2.8160      4.1969      1.5872
H      2.3330      4.4976     -0.7416
O      5.7701      6.3191      6.3804
C      0.5151      8.2148      4.4261
H     -8.6961     10.3823      7.8499
C     -2.7085      8.7526      3.8314
C     -2.3217      7.5835      3.0607
H     -7.0873      8.5122      7.1534
C     -2.7058      7.5095      7.7665
H      1.9329      4.0823      5.2556
H     14.2900      8.9488     10.4505
H      6.2542      2.1037      1.9838
H      1.1097      3.9761      9.1016
C      2.9733      1.8034      1.2166
C     -0.4199      8.5985      1.8944
C     -0.6124      3.0305      1.2722
C     -0.2224      3.9804      4.0721
C     -5.6395     10.9461      7.0783
H     -3.7706      7.7238      7.4581
H      0.6463      5.5540     -0.6638
O      0.3258      9.4620      6.4448
C     -6.7672     11.5377      7.8159
C      0.8265      7.2334      6.9773
C     15.1300      7.8775     14.0024
C      0.4249      7.5831      2.9860
H     -4.5518     13.2081      9.5904
C      2.4239      0.5766      3.4454
C      0.5725      2.7076      7.7549
C     -2.4155     10.4322      7.0888
C     -2.6505      3.2734      5.2231
C     18.1525     12.0282     17.7297
C     -9.5903     16.6972     10.0304
C      0.5249      2.6609      0.5448
C     -1.5268      7.6845      1.5811
C     -8.9076     12.3662      8.3228
N      1.6123     -0.2791      3.8262
H      4.1077      1.0794      0.0848
C      3.0444      1.2943     -0.0431
O     16.9220      6.4248     15.6981
C      9.4406      6.2051      0.6528
H     18.4839      8.9989     19.1093
C     -2.9359      4.2728      2.8386
C     -2.8046      7.4552      9.2442
H      1.3754      1.4786      6.6013
H      7.2050      4.7011      0.0970
H     -4.6929      8.9231      7.0139
C     -2.6590      9.6681     -0.2807
H      4.6907      5.8320     10.0931
H      2.5352      7.9601      8.9407
H     -1.0000     10.1305      5.1886
H     14.9989      9.8543     11.9994
H      2.9984      1.8956     -1.0052
H     -0.8902      3.3877      9.2661
C     14.8386      7.4873     15.5958
C     14.3934      9.1746     11.4521
C     -6.9908     10.7761     11.4322
H     15.6043     10.8507     16.7722
C      4.2913      7.8381      4.2592
C      7.7261      7.0394      3.3018
C     21.1838      9.3896     14.8388
C     19.0761      8.4522     15.0213
C      4.3633      5.8968      6.2862
C      1.6891      4.9003      2.5844
C      5.8304      6.2210      0.3730
C      5.8350      7.5135      4.5018
C      8.0280      6.4106      0.8246
C      4.0259      5.0297      7.3761
C      1.5518      5.1426      1.1153
H     -2.7564      5.6294      6.3702
C      6.5721      7.2068      5.7008
H      0.7364      1.4436      0.1984
C      6.8566      5.5503      0.9067
H     -0.6903      2.7151      3.7919
O      7.7672      7.4104      6.1256
H      9.1968      9.0693     11.8645
H      1.6206      2.6563      3.2401
H     -0.6889      9.5450      2.3870
H      3.5261      3.8770      0.5579
H      4.9096      4.9645      4.2398
C     12.4697      7.5272     11.7876
C     15.5334      6.2769     15.9671
H      1.6664      6.4975      9.5164
C     -1.9381      4.5367      5.0525
C      0.4492      7.0479      5.5635
H     17.0721      8.4353     20.9148
H      1.9217      1.9036      5.6566
C      1.2325      5.7430      4.9921
H      2.5843     -0.1663      1.6399
H     16.9901     11.0474     15.9083
H     -0.1098      6.4800      8.6622
C     -5.0089      6.2303      8.8583
C     -8.5117     13.8553      8.5453
C      6.3003      7.4914      3.1578
C     -3.0268     10.1989      5.8749
C     -0.3295      6.2483      2.8228
C     -1.6364      6.5692      3.7397
H      3.7306      6.2969      0.0173
H     -2.7947      3.0929      6.2641
C    -10.6741     13.5974      8.7576
C      0.3981      5.2392      3.4474
C      4.8421      3.6059      2.5401
H      2.0435      4.4754      8.3089
H     -6.0317      7.8181      8.6834
H     -2.4444     12.5331      8.2304
H     -5.5465     11.1428      6.0772
C      2.3144      7.0033      8.9927
C     -1.7236      5.6500      5.9425
C      3.0352      0.6350      2.1713
C      0.9115      4.7826      6.0863
C      2.1683      6.3238      7.6293
C      2.4878      4.1210      0.4139
H     -1.5462      5.3991      1.0013
H      4.0709      2.0322      1.0268
H      2.7191      0.6263     -0.8335
H     -1.2856     10.8374      7.2119
H      5.0952      1.3608      3.4057
C     -0.4970      8.9726      5.2647
C     -4.1333      6.9821      9.6470
H      3.7620      5.6008      1.3815
H     21.6706     10.2178     14.1435
C     -4.3320     11.6020      7.6091
H      9.8072      6.2045      1.6276
H     -2.2820     10.7741      5.0722
H     -6.9386     14.8348      9.2805
C     -0.2301      7.1622      7.8424
C      0.1882      3.8178      5.5551
O      8.6372      5.4330      4.5292
C     -1.4588      8.1144      5.8670
C     -6.4511     14.4583      7.2378
C      5.2855      2.1008      6.5224
C      3.1404      0.6039      6.1262
H      8.7191      6.2631      4.7225
H     -5.9785     15.4276      7.1721
H      5.3498      3.6507      8.3034
H     -4.9188     10.2964      8.3757
H      1.1619     10.0862      6.4381
H     18.8579     12.3622     18.5087
H    -10.9665     11.4773      8.2304
C      1.8055      4.9139      7.2336
H     -0.7752      3.8442      1.6663
C      3.7901      5.2406      4.9800
C     -9.4895     15.8168      9.0143
H     22.0705      8.6947     14.4201
C      8.3624      7.1856     10.9694
H      3.4408      5.2221      8.2310
H     11.4443      5.8448     11.9519
H     -6.5908     13.9356      6.4168
C      3.7338      2.6749      4.5000
C     17.6575      9.7180     18.7129
C     -6.3009     12.5398      8.7491
C     -5.2898      9.6523      7.6878
C      5.2574      4.6623      8.1415
C     -6.9849     13.9055      8.4866
H     -1.0266      4.4298      8.0451
H      0.7565      3.1454     -0.5357
H     19.6692     10.0441     13.7061
H      7.4428      5.3324     11.7034
H     -1.1187      2.7733      6.0407
C     14.4374     10.2532     14.0056
H     -9.6631     17.6915      9.6116
H     -2.9339      9.9255      3.5020
