261

C     20.1588      8.8374     13.9319
C      3.7473      1.3719      7.0869
C      2.1263      2.8041      1.4428
C      6.8939      4.8586      2.4730
H     -2.6868      3.6005      3.4052
C      7.2039      3.4750      2.7002
C      3.3168      3.9982      5.6350
C     -6.2961     10.0072     10.2922
C     16.1905      7.1242     19.5593
C      5.9619      1.6233      4.0474
C     -7.0369      9.1578      9.4416
C     13.6585      8.8965     13.6356
N     -0.3842      2.6439      6.6289
C      0.5251      5.8172      0.5301
O     -1.7478      2.5548      1.7654
C      2.9722      4.0924      6.9569
C     15.4959      6.1266     17.4600
C     16.6049     10.2684     16.7976
H     -3.7065      3.7754      5.1764
H     17.6010      5.4192     16.0902
H     -7.6180      9.8869     11.6126
C     17.3280      9.1379     16.2609
H     -8.8214      8.4443     11.0164
H     -5.5096     10.5865      9.6381
H      8.0850      3.3787      3.3481
H     12.5701      6.9274     10.7246
H     -0.8521      5.5197      6.8144
C      2.8008      2.7303      7.6519
H     -3.1207     10.2792     -0.5254
H      6.7707      0.7773      3.9435
O     15.3701      9.9704     14.6831
C     -4.7451     12.8402      8.7797
C      6.8846      6.2043      9.5018
H      2.8605     -0.5873      6.3316
H      3.0315      6.1864      9.3715
C      5.9772      2.5153      2.9284
H      6.2712      4.8136      7.9017
H     -5.3856      9.3605     10.7764
H     -7.8629     11.0475      9.0921
C     17.6867     10.8016     17.6788
C     -2.9397      8.7922      4.8246
O      2.0531      8.6864      4.9267
C     -1.6171      8.0287      7.0777
C      8.5875      8.2438     11.9441
C     20.3761      7.8269     12.9709
C      6.3792      6.9777     -0.6973
H      5.5002      4.3032      1.9382
H     17.6104     10.0675     14.8789
H      1.3815     -0.8325      2.8819
H     -5.1554      5.8269      7.8095
H     14.9783      9.3985     15.4461
C      7.1509      6.4757     11.0803
C      7.8994      5.6226      3.3005
H      8.1541      7.4215      2.0176
C     -1.1354      6.7941      5.0668
H     15.2975      9.0762     20.3973
H      4.3069      0.6291      2.9082
H     -6.4616     11.0995     12.1912
H     15.1135      7.0527     13.3625
C     -2.8220     11.3680      7.9801
C      5.5162      5.3435      9.4461
C     16.0748      7.5758     18.2024
C      4.4437      6.0973      0.5030
C     18.1812      9.1746     15.2125
H     -3.8327      8.2561      5.0839
H      8.5711      7.2549      3.9419
H     -9.2896     14.2622     10.4095
H     -6.3494     12.0956      9.8159
H     17.9903     12.8182     16.7462
C     -0.1809      3.6729      8.7222
C     13.1455      8.5098     12.3384
C      1.6436      1.7932      7.8631
H     -2.1490      6.6263      9.4322
C     -0.7841      6.4801      1.3415
H      5.3132      7.5392     -1.0940
H     -2.3756      2.5499      5.0098
H     -8.0911     11.2506     10.9772
C      9.9696      7.8029     12.5650
O     14.6133     11.3109     12.8835
C     -6.3603      8.7375      8.1816
C     16.3735      8.4747     20.1379
C     -9.2840     14.4852      9.4108
C      2.6269      1.5335      4.8163
H     -1.4685     10.2197     -0.4918
H     -6.5628     12.1145      6.7337
H     -9.5346     17.1343     10.7509
C      3.7921      3.1956      3.2855
H     -3.9181     10.3181      5.5821
C     -2.3604      8.5722      0.6253
C     11.0352      6.9069     11.7355
H     -2.1423      9.6392      7.4552
C      5.1073      2.1190      5.2324
H      4.1064      0.0159      5.9744
C    -10.1737     12.2167      8.4736
C     -7.8570     11.1221      8.0116
C     -2.1885      5.3435      3.3722
C     16.8704      9.4744     19.4475
C      2.4331      3.6124      2.7693
C     -8.0155      8.3093      9.9833
H     16.0896      8.4578     14.2395
H     -3.4224      4.5501      1.5492
H     14.1826     12.0822     12.2470
H      1.6553      4.0628     -0.6732
O      5.7828      6.4068      6.6618
C      0.7292      8.3495      4.6701
H     -8.1273     10.3904      7.2617
C     -2.5648      8.9275      3.3677
C     -1.9296      7.8638      2.9923
H     -7.2689      8.1406      7.8274
C     -2.8511      7.5224      7.6218
H      2.2732      4.3349      4.9657
H     14.0342      8.9292     10.5765
H      5.6410      1.9475      2.0305
H      0.7813      4.1903      8.8053
C      3.1237      1.9302      1.1434
C      0.0248      8.6789      2.0093
C     -0.6811      3.1027      1.6015
C     -0.4464      3.9787      4.2114
C     -5.2618     10.9539      7.3326
H     -3.5973      7.4294      6.7768
H     16.1821     10.2072     19.9694
H      0.9385      6.0569     -0.6020
O      0.1375      9.7959      6.3814
C     -6.3573     11.6226      7.8214
C      0.6853      6.9412      6.8894
C     14.9336      7.8696     14.1139
H     15.5166      7.9284     16.2557
C      0.6199      7.6331      3.0539
H     -4.2105     12.2826      9.6743
C      2.5429      0.6996      3.5685
C      0.3003      2.4100      8.1961
C     -2.2279     10.6686      6.7142
C     -2.6176      3.4712      5.2294
C     18.2014     12.1349     17.5529
C     -9.7724     16.8692      9.7632
C      0.6272      2.4586      1.0704
C     -1.2254      7.9707      1.5315
C     -8.8022     12.2392      8.0815
N      1.4676     -0.2094      3.6580
H      4.1196      0.5521     -0.6537
C      3.0673      1.2876     -0.2432
O     16.8282      5.9647     15.4669
C      9.4328      6.5373      0.8515
H     18.8437      9.5872     19.3252
H     -0.2807      1.4940      8.5790
C     -2.8822      4.4014      2.6062
C     -2.6673      7.4012      9.0085
H      1.5022      1.0771      6.7798
H      8.0055      4.9611      0.5357
H     -4.4761      8.6746      6.9490
C     -2.3753      9.7286     -0.1130
H      5.1499      5.2968     10.4822
H      2.6260      7.8752      9.3166
H     -1.1392      9.7740      4.3355
H     14.6430     10.2626     11.7612
H      2.4025      1.9057     -0.9400
H     -0.2172      3.8215      9.8143
C     14.9487      7.4085     15.4592
C     14.1256      9.1255     11.6234
C     -7.1655     10.7425     11.3374
H     15.8080     10.0449     17.5703
C      4.6818      8.0790      4.6645
C      7.9378      7.1168      3.1509
C     21.2326      9.5160     14.7691
C     19.2795      8.3277     14.9585
C      4.5459      5.8750      6.4373
C      1.6835      4.9218      2.6377
C      5.7676      5.9741      0.3867
C      5.7848      7.0367      4.2496
C      7.9383      6.6302      0.8279
C      4.1486      5.0204      7.6842
C      1.5861      5.1909      1.1963
H     -2.5853      5.9147      6.7287
C      6.6218      6.8507      5.2858
H      9.8856      5.6364      0.6683
H      0.6323      1.5064      1.4520
C      7.1628      5.5836      0.9748
H     -0.9989      3.1138      4.0126
O      7.7225      6.6765      5.5032
H      8.8479      9.1438     11.5040
H      1.7903      3.0989      3.5615
H     -0.2449      9.7039      2.3217
H      3.4543      3.5725      0.1032
H      4.5894      4.7963      4.2436
C     12.1277      7.5365     11.4674
C     15.4355      6.0721     15.9710
H      1.2727      7.1088      9.6393
C     -1.7563      4.5900      4.7107
C      0.3259      7.1137      5.3186
H      1.7020      2.1103      5.0108
C      0.9923      5.8005      4.8350
H      2.8789      0.1994      1.7567
H     16.5279     11.1887     15.8401
H     -0.5096      7.8704      8.8744
C     -4.9559      5.9829      8.7772
C     -8.6586     13.6461      8.4751
C      6.5680      7.6240      3.1685
C     -2.9021     10.2266      5.4107
C     -0.2804      6.3152      2.8090
C     -1.3838      6.7173      3.7121
H      3.6904      7.1829      0.1554
H     -2.7046      3.4980      6.2713
C    -10.8282     13.5864      8.8676
C      0.4884      5.0573      3.4865
C      4.8116      3.4752      2.5905
H      1.5086      4.6458      7.9147
H     -2.6738     12.3835      8.2588
H     -5.1875     10.8717      6.2416
C      2.2845      6.9857      8.9748
C     -1.5192      5.6003      6.0516
C      3.1710      0.8733      2.4442
C      1.1703      4.5656      5.7350
C      2.0574      6.5165      7.1687
C      2.2737      4.1502      0.4214
H     -1.7273      5.8877      1.4361
H      2.3223      0.3574     -0.1691
H     -1.3092     10.9971      6.4369
H      5.0121      1.1225      3.8749
C     -0.4593      9.1663      5.0608
C     -4.0056      6.9356      9.5135
H      3.7455      5.0813      0.7484
H     21.8103     10.0594     14.0126
C     -4.2081     11.6602      8.0759
H     -2.8201     10.8698      4.2509
H     -6.6474     14.4577      9.4435
C     -0.3695      7.6377      7.7665
C      0.1671      3.5246      5.7109
O      8.6850      5.0213      4.2831
C     -1.6431      8.2926      5.6819
C     -6.6343     14.2935      7.3097
C      5.2840      2.1846      6.4684
C      3.2340      0.4313      6.1712
H      9.5126      4.7162      4.5579
H     -5.9098     15.1007      7.3694
H      5.6842      3.0948      8.1962
H     -4.3000      9.4585      8.3256
H      0.4186      8.8866      6.6905
H     18.9286     12.6643     17.9823
H    -10.8561     11.4550      8.0157
C      1.7970      5.0331      6.8943
H     -0.4517      4.2144      1.8969
C      4.1395      5.1669      5.2173
C     -9.4901     15.8011      9.0459
H     21.0624      9.1882     15.7334
C      8.2965      7.3023     10.7943
H      3.3440      5.3016      8.3737
H     -6.3842     13.2778      6.7500
C      3.7471      2.5409      4.7080
C     17.9906      9.6494     18.5973
C     -6.2009     12.5700      8.8235
C     -5.1365      9.2773      7.5786
C      5.3756      4.3252      8.1942
C     -7.0207     13.8094      8.5532
H     -0.8523      4.4990      8.0982
H      0.4345      2.5420     -0.2198
H     19.5572      9.6905     13.4433
H      6.9460      5.4776     11.2400
H     -1.5340      2.5809      6.4196
C     14.4307     10.3423     13.7969
H    -10.4882     17.5274      9.5756
H     -2.7931      9.5003      2.4090
