263

C     19.7991      8.9768     14.0962
N     -1.9881     10.8008      1.4957
C      3.9027      1.5886      7.0605
C      1.9186      2.4532      1.6028
C      7.4180      5.2033      2.2738
H     -3.0305      6.6243      2.3214
C      7.3549      3.8987      2.7845
C      3.4279      3.9285      5.5835
C     15.9693      7.2484     19.4109
C      5.7962      1.7782      3.9033
C     -7.1119      8.3957      9.7358
C     14.0184      8.8764     13.5983
N     -0.1673      2.4644      5.9897
C      0.4580      5.9159      0.5998
O     -1.5522      2.8961      0.9904
C      3.0725      3.9148      7.1712
C     15.6108      6.1823     17.2942
C     16.2711     10.5043     16.5255
H    -11.6761     13.9175      9.5803
H     -3.6293      4.1334      5.2863
H     17.1152      6.7897     14.6799
C     16.7464      8.9025     16.1551
H     -9.2801      7.3673      9.8065
H     -6.7159      8.9874     10.5953
H      8.0273      3.1928      3.2340
H     13.1786      7.7354     10.7686
H     -1.3418      5.8187      6.6939
H      8.6596      2.4824      9.8099
C      2.8948      2.6584      7.6685
H      6.6211      1.0847      3.7650
O     14.0305     10.6814     14.9742
C     -5.1380     12.7004      8.6635
C      7.1854      5.8423      9.4726
H      2.8994     -0.0582      6.0622
H      2.7869      6.5377      9.0171
C      6.1225      3.2409      2.9662
H      6.0127      4.4155      7.2235
H     -8.6490     10.5168      9.5575
H     -7.9374      6.2092      9.3450
C     17.2800     11.0013     17.6087
C     -3.1483      8.3272      5.0124
O      1.9005      8.5208      4.6497
C     -1.5469      7.9875      6.8934
C      8.5561      8.3708     11.9110
C     20.3872      7.6850     13.0381
C      6.6190      6.9588     -0.7932
H      4.6464      4.3495      1.7620
H     17.3363      9.8176     14.2400
H      1.5694     -1.1975      4.1888
H     -5.2599      7.4290      7.9781
C      7.7676      3.2498      9.4223
C      7.6731      6.3208     10.9438
C      7.7710      5.8881      3.3310
H      7.8840      7.5903      1.9923
C     -1.1847      6.7306      5.1210
H     16.4997      8.2396     21.3954
H     15.4584      7.0943     13.5472
C     -3.1994     12.0075      7.1711
C      6.3085      4.7798      9.2268
O      5.5391      2.8920     10.5810
C     15.8525      7.6447     17.9100
C      4.7495      5.4286     -0.1272
C     17.3533      8.9834     14.9141
H     -3.3914      7.2483      4.9554
H      7.7988      7.4066      4.0476
H     -9.3791     14.6128     10.6288
H     17.4264     12.8913     16.6642
C      0.3797      3.3679      8.7344
H     20.7478     10.6121     13.6235
C     13.5183      8.8572     12.3381
C      1.6731      1.7183      7.5499
H     -1.7945      7.8811      9.3422
C     -0.5665      6.2472      1.3867
H      5.7865      7.5104     -1.2134
C     10.0659      7.7832     12.4495
O     15.3347     10.5083     12.9423
C     -6.3716      8.4768      8.6890
C     16.7752      8.3344     20.1908
C     -9.6455     14.3699      9.5151
C      2.8802      1.5842      4.8945
H     -1.5340     10.3199      2.1708
H     -3.0909     10.0418     -0.1696
H     -7.3095     11.6602      6.6515
H     -9.5167     16.9116     10.7855
C      3.6366      3.3400      3.4237
H     -4.5048      9.2699      6.2502
C     -2.0111      8.5392      0.5217
C     11.3441      7.5302     11.5041
H     -1.7204     10.8200      6.1692
C      5.1520      2.2705      5.0591
H      4.3675      0.0337      5.5166
H     -2.0837      3.6643      0.9412
C    -10.6206     12.2334      8.6612
C     -8.3699     10.9718      8.4990
C     -2.1024      5.0856      3.4554
C     16.5562      9.6385     19.5876
C      2.1286      3.4116      2.8050
C     -8.1618      7.2300      9.8051
H      8.8222      4.8408      3.9596
H      2.5634      5.1970     -0.3101
O      5.2920      6.4320      6.6761
C      0.5794      8.1509      4.3751
H     -8.6644     10.2381      7.8225
C     -3.1804      8.5931      3.6294
C     -2.3684      7.3505      2.8559
H     -6.9175      7.9592      7.6553
C     -2.7949      7.9223      7.3943
H      2.3303      4.1479      5.1590
H     13.4539      9.1801     10.4423
H      3.8486      3.7009     -0.7773
H     -0.0274      4.2951      8.9370
C      2.9548      1.3383      1.3289
C     -0.0346      8.4297      1.8552
O      4.7338      3.9174     -0.2966
O      7.1012      4.1691     11.5646
C     -0.4108      3.2306      1.7560
C     -0.4031      4.0888      4.2738
C     -5.6379     10.5015      7.4199
H     -3.0410      7.0792      6.7952
H     15.4284     10.3787     19.4812
H      0.6913      5.6392     -0.3680
O      0.0623      9.7961      5.7382
C     -7.0160     11.4015      7.8359
C      0.7308      7.1087      6.6323
C     15.1453      7.8385     14.0630
C      0.5986      7.6597      2.9813
H     -4.3629     12.0423      9.3611
C      2.7099      0.3887      3.8267
C      0.1392      2.2467      7.5292
C     -2.7831     10.8439      6.3838
C     -2.9418      3.3619      5.4650
C     17.7786     12.2560     17.4527
C     -9.9221     16.8760      9.8600
C      0.6692      2.2778      1.2652
C     -1.4409      7.7094      1.6442
C     -9.3360     12.2228      8.5536
N      1.7959     -0.2827      4.4938
C      3.5263      1.6478     -0.0223
O     17.0040      6.4033     15.5048
C      9.6444      6.6226      0.2744
H     18.4064      9.8708     18.1825
H     -0.7867      1.8657      7.8552
C     -2.7556      4.7237      2.3009
C     -2.7430      7.7667      8.8069
H      8.4193      4.0025      9.3831
H     -4.8591      9.9257      9.3919
C     -2.4118      9.8518      0.5722
H     -8.2043      6.5583     10.6837
H      1.4938      7.9185      9.3738
H     -1.0020      9.6564      3.7914
H     14.7873     10.1729     11.3759
H      4.0060      1.0035     -0.8615
H      1.3039      3.8200      9.2884
C     14.9023      7.3811     15.4186
H      2.7088      2.3481     -0.3592
C     13.7840      9.5869     11.2881
H      5.9524      2.4897     11.4970
H     15.2790      9.9284     16.8966
C      4.1803      7.9990      4.3387
C      7.5188      7.4423      3.1364
C     21.0682      9.6455     14.1602
C     18.6988      8.2307     15.0510
C      4.2263      5.9304      6.4717
C      1.7129      4.9205      2.6102
C      6.1241      5.9358      0.1194
C      5.4121      7.1939      4.3669
C      8.2255      6.8160      0.7793
C      3.9827      4.8965      7.5826
C      1.3472      5.0079      1.2106
H     -2.8382      6.0067      5.5846
C      6.1087      6.4330      5.4424
H     10.4828      5.8369      0.5394
H      0.6371      1.4056      0.5830
C      7.3007      5.7623      0.9474
H     -0.4954      3.1853      3.2198
O      7.3722      7.0414      5.8808
H      8.2920      9.5345     11.7930
H     21.5762     10.0614     15.3078
H      1.2219      2.6921      3.5164
H     -0.2128      9.4037      2.3428
H      3.1722      3.9157      0.7112
H      4.4782      5.7707      4.5185
C     12.7687      7.6680     11.7885
C     15.6526      6.1744     15.8671
H      1.0811      6.2786      9.2971
C     -1.9040      4.3941      4.8926
C      0.3091      6.8401      5.2439
H     17.7309      8.1659     20.0231
H      1.7004      2.0708      5.0017
C      1.1777      5.6588      4.7242
H    -11.5976     11.8589      8.7352
H      1.2066      0.2979      2.4935
H     15.9571     10.9610     15.6456
H      0.3296      8.1569      8.6243
C     -4.8787      6.5220      8.5987
C     -8.7223     13.6132      8.4944
C      6.0240      7.6098      3.1655
C     -3.5417      9.7263      5.7311
C     -0.2094      6.2660      2.9347
C     -1.5503      6.4561      3.6818
H      4.4294      5.9204     -1.0047
H     -2.6134      3.1088      6.5135
C    -10.9696     13.8159      8.8514
C      0.6491      5.2553      3.5283
C      4.8712      3.8099      2.7655
H      0.6696      4.3749      7.5182
H     -4.3592      9.0476      7.8602
C      6.6709      3.8987     10.3343
H     -2.4631     12.8687      7.3036
H     -5.6490     10.5365      6.3844
C      1.7958      6.8366      8.8770
C     -1.8790      5.6634      5.7117
C      2.3326      0.2291      2.1791
C      1.2524      4.6283      5.6715
C      1.8329      6.4375      7.2602
C      2.2259      4.4219      0.1414
H      3.7951      1.8335      1.9610
H      4.5242      2.0179      0.1379
H     -4.2238      5.9232      8.1446
H      7.7487      2.5752      8.5669
H      5.2367      1.1111      3.0825
C     -0.5297      9.0683      4.7816
C     -4.0289      7.6348      9.4699
H      3.8971      5.8149      0.7005
H     -4.1618      8.9639      3.2002
C     -4.5920     11.7919      7.5561
H     -3.1460      3.7143      2.0882
H     -3.7124     10.4939      4.6822
H     -7.0860     14.8493      9.2269
C     -0.1484      7.7168      7.4088
C      0.1994      3.7434      5.6056
O      8.4751      5.5134      4.4495
C     -1.5788      8.2614      5.3346
C     -6.6523     14.3631      6.9627
C      5.1833      2.1816      6.4741
C      3.5008      0.7261      6.0290
H      7.9631      6.3305      6.1312
H     -5.9000     14.9093      6.8064
H      5.1965      3.3567      8.4164
H      0.0115      9.4189      6.8579
H     18.9376     12.6363     17.7728
C      1.7736      4.8182      7.0475
H     -0.1920      4.2378      1.4913
C      3.7604      5.3334      5.0734
C     -9.7272     15.7707      9.0306
H     21.8263      9.1178     13.8897
C      8.2869      7.5501     10.6216
H      3.7290      5.7178      8.2926
H     11.3249      6.9835     10.5074
H     -6.6077     13.3084      6.5410
C      3.8036      2.7098      4.7180
C     17.5859     10.2230     18.8051
C     -6.4659     12.5147      8.7980
C     -5.2985      9.3280      8.3555
C      5.3357      4.3020      8.0412
C     -7.1589     13.8297      8.7238
H      1.9990      3.5026     -0.2173
H     19.3715      9.6905     13.5648
H      9.3747      6.0937     -0.7136
H     -1.0609      2.2847      6.4290
C     14.6037     10.1669     13.7358
H    -10.0813     17.7951      9.2236
H     -2.6311      9.6248      3.1845
