268

C     32.5760      9.1327     13.7241
C      4.1156     14.4578      6.6768
C      2.8042     15.7894      1.0133
C      6.9497     17.8581      2.6589
H      9.6960      3.2755      2.7745
C      7.4891     16.4721      2.7839
C     16.0170      4.0998      5.4053
C     19.0431      9.7915     10.8480
C     28.5992      7.0510     19.4277
C      5.9847     14.9978      4.2907
C     18.9888      8.4906     10.1363
C     26.7074      8.8733     13.5995
N     -0.2019     15.9579      6.1479
C      0.8696     18.9911      0.2634
O     11.6184      2.0177      2.6571
C     16.0647      3.9234      7.0205
H      0.9209     19.4113     -0.6948
C     28.4527      5.9927     17.1677
C     29.3236     10.3265     16.8658
H      2.0082     12.7333      9.9245
H     10.3040      2.6983      5.8738
H      5.9468     18.0526      3.6078
H     20.4857     11.1164      9.4503
C     29.9766      9.0745     16.4279
H     19.9304      9.4491     11.4344
H      7.9741     16.5114      3.7235
H     25.3688      7.3809     10.4741
H     11.5221      4.7782      6.6374
C      3.1145     15.3807      7.5532
H     -3.8577     22.3855      0.6479
H      6.9859     15.1870      4.7008
O     27.9621     10.6228     14.8046
C      8.4851     13.5455      7.9922
C     19.4297      6.1532      9.8591
H      2.3143     18.9259      9.2102
C      6.2460     15.6011      2.9329
H     19.0972      4.8863      7.4902
H     18.5010      9.8895     11.7172
H      5.0814     10.8459      6.7286
H     16.7367      7.8942      9.6470
C     30.3047     10.5056     17.7846
C      9.9622      8.3010      4.8048
O      1.9008     21.3967      4.9221
C     -1.8347     20.1102      6.8695
C     21.5335      8.3779     12.1294
C     33.2119      7.9617     13.0853
C     18.9933      7.2864     12.2792
H      5.3068     17.0670      1.6941
H     29.7953      9.7036     14.5265
H      1.7700     11.9183      3.0961
H     -4.2373     18.0435      9.5825
H     28.5458     10.7313     17.4305
C     19.5867      7.3630     10.8253
C      8.0924     18.7619      3.4228
H     33.6488     10.7487     12.6300
C     11.8481      6.3301      4.7455
H     27.8501      8.6115     20.9995
H      4.6100     13.5433      2.3108
H     18.2604     11.4554      9.7073
H     29.8428      5.3589     15.4408
C     10.0590     11.5330      7.1238
C     18.3404      5.6662      9.4071
C     28.7493      7.2922     17.8405
C     17.5567      5.6756     13.3157
C     30.5724      9.0513     15.1227
H      9.1489      7.6827      4.9951
H      8.3960     21.3185      3.0395
H      4.2555     14.0646     10.6267
H     32.1586     11.1438     18.3483
C     -0.0042     15.4027      8.6263
C     26.3474      8.7172     12.0673
C      1.6345     14.5448      7.0746
C     -0.1680     19.4135      1.2533
H     18.0979      8.2183     12.2769
H      9.4851      3.5923      4.3739
H      6.4771     17.6034      4.9059
H     19.8408     11.7111     10.8843
C     22.7281      7.7495     12.8616
O     27.5869     11.0067     12.6103
C     19.6124      8.5039      8.6554
C     28.7368      8.1204     20.4009
C      3.7031     14.1166      9.6348
C      3.2242     14.5233      4.5606
H     -2.6586     23.0550      2.1989
H     16.7158      6.2836     13.0008
C      3.8605     16.3575      3.2280
H      8.7087      9.5246      6.0674
C     -2.4695     21.6485      0.8455
C     23.8163      7.5832     11.7602
H      0.9928     22.6041      6.1455
C      5.4421     15.9398      5.3474
H     31.2779     12.1343     16.7850
H      8.1578     16.3031      2.0364
C      3.1110     12.2157      8.1679
C      5.4686     11.7919      7.3814
C     11.0170      4.6401      3.2046
C     28.8481      9.3015     19.4959
C      2.5822     16.2444      2.4709
C     17.5922      8.5615      9.8087
H      3.3834     10.9561      8.5980
H     28.7468      8.4344     13.5064
H      9.8521      4.8360      1.4291
H     26.1792      9.7459     11.5189
H      2.5675     16.1348     -0.7744
O      4.8465     20.1178      6.5190
C      0.4055     20.9359      4.6357
H     29.2279     10.0102     20.5025
C     10.5274      8.5415      3.5347
C     10.9679      7.5865      2.7742
H     18.8362      8.8937      8.1505
C     -2.9690     19.9231      7.7786
H     28.2987      7.5166     11.4211
H      6.4069     14.5933      2.4443
H     -0.8272     16.1425      8.4607
C      3.5258     14.3451      0.8450
C     -0.1127     21.6823      2.0563
C     11.4085      2.9582      1.4108
C      0.2452     16.7097      3.6186
C      7.9018     11.5535      7.0749
H      1.3228     13.2432      3.9890
H     -3.9148     19.7953      7.2265
H     27.8533      9.7068     19.3010
H     27.6760      7.1328     13.2019
O      0.0137     22.5036      6.3743
C      6.7522     12.1994      7.5972
C      0.2829     19.5114      6.7275
C     27.8287      7.8714     13.9493
C      0.6276     20.7436      3.0579
H      9.2955     13.8869      8.5217
C      2.5747     14.0338      3.4006
C      0.4858     15.3435      7.2273
C     10.4599      9.9784      6.8859
C     10.2696      2.9083      4.7723
C     31.4529     11.1803     17.6160
C      3.0401     16.7728      9.5849
C     12.7137      3.4128      1.0039
C     -1.2728     21.0000      1.4839
C      4.5484     12.5195      8.1148
N      2.0719     12.8030      3.7231
H      4.0814     12.8951     -0.7832
C      3.1683     13.4298     -0.3410
O     29.8191      6.2184     15.2332
C      9.3110     19.7225      0.9987
H     30.9513      8.9249     19.3749
H      2.1447     14.1367      7.9562
C     10.3391      4.0233      2.0797
C     -2.9863     20.1172      9.2626
H      1.7640     14.0345      6.0626
H      8.0789     17.9531      0.9787
H     20.2298      9.7258      7.1433
C     -3.0498     22.8552      1.3453
H     17.4491      9.2103      9.0135
H      0.9400     20.0704      9.0514
H     10.3372      5.6767      5.5676
H     27.4974      8.0567     10.1754
H      2.9659     14.1768     -0.9315
H      0.6198     16.4809      9.0584
C     27.8072      7.5521     15.3277
H     17.3847      6.0416      9.5552
C     27.7773      8.4577     11.1315
C     19.4089     11.1291     10.1484
H      3.0051     16.9929     10.8826
H     29.4239     10.8274     15.9775
C      4.3019     21.0423      4.5523
C      7.9263     20.1533      2.9683
C     33.0862     10.4975     13.4737
C     31.9444      8.7841     15.1074
C      4.0170     18.9851      6.2551
C      2.0105     17.6781      2.1914
C     18.7239      6.1834     12.9135
C      5.5245     20.2836      4.2869
C      7.8831     19.9386      1.3159
C     16.9147      5.1125      7.6251
C      1.7575     18.0103      0.7565
H      7.8626     20.6180      5.1989
C      5.9633     20.1293      5.5287
H      9.2230     18.8984      0.3636
H     13.5600      3.0844      1.3884
C      7.2046     18.6264      1.2556
H     -0.0101     15.8887      3.0395
O      7.2699     20.4107      6.0270
H     21.5317      9.4880     11.5944
H      1.9146     15.1226      2.8922
H     -0.3006     22.4364      2.8094
H     17.1663      4.7151     13.3275
H      4.0705     18.0860      3.8091
C     25.0259      7.9752     11.5405
H     -5.2938     18.7443      8.0517
C     28.4782      6.2337     15.6602
H      0.5345     18.3788      8.7578
C     10.7715      4.2735      4.4167
C     13.3093      6.6740      5.2483
H     16.9906      9.1508     10.5289
H      3.5487     12.4928      5.5261
C     14.1990      5.5483      4.6603
H      3.2487     12.4570      2.2710
H     -0.5592     19.4395      8.9049
C     -5.0454     18.8306      9.1358
C      4.7086     13.6638      8.8125
O      6.1441     17.1233      5.6783
C      6.3952     20.3968      3.0730
C      9.6614      9.7626      5.5920
C      0.0003     19.4146      2.6699
C     11.6074      6.2574      3.3120
H     29.6515      7.9906     21.0236
H     28.0359      9.5388     11.0668
H     10.3812      2.3595      3.9878
C      2.6707     13.1452      9.4284
C      0.7741     18.0655      3.2477
C      5.0602     16.5375      2.5176
H      0.6933     17.4646      7.7622
H     21.2147      8.1473      7.6997
H     11.0673     11.8561      7.0764
H      7.9965     10.9764      6.1603
C      1.4545     19.1485      8.6879
C     11.2813      5.1408      5.4308
C      3.4997     13.4914      2.1757
C     14.4472      4.3623      5.5041
C      1.6142     18.9810      7.0618
C      2.3748     16.7341      0.1462
H     -1.0446     18.8445      1.0564
H      4.5183     14.4691      0.5085
H      2.4617     12.7189      0.0201
H     12.1937      1.3522      2.1929
H     10.1390      9.3454      7.8268
H      5.3961     14.1460      4.0097
C     -0.5984     21.6625      5.3213
C     -4.2324     20.0218      9.7333
H      6.2909     19.6331      2.1572
H     32.0274     10.9091     13.4801
C      8.8852     12.1550      7.6489
H      9.8944     19.6169      1.7549
H      9.9765     10.6678      4.8988
H      6.4176     15.2782      9.3253
C     -0.6501     19.8452      7.5860
C      0.3840     16.5190      5.0713
O      8.7771     18.2138      4.1414
C     -1.7722     20.5810      5.5531
C      6.2698     15.4673      7.6033
C      5.6798     15.0771      6.5387
C      3.5256     13.5903      5.5646
H     19.1669      7.3866      8.0255
H     18.0575      3.9009      8.8461
H     21.7907      9.3608      8.7634
H     11.5059     10.1088      6.7451
C      1.6436     17.4356      7.0632
H     10.9728      2.5792      0.4309
C      3.7125     18.2392      4.9158
C      3.3473     15.5117      9.0523
H     33.8916     10.9684     14.3441
C     21.2232      7.3243     11.0215
H     16.4277      5.7317      8.2536
H     23.4427      7.0604     10.7881
H      7.0709     16.1130      7.8689
C      4.0066     15.8637      4.8155
C     30.0742      9.2408     18.7006
C      7.1228     13.5666      8.4044
C     20.7915      9.1133      8.0102
C     18.3313      4.8930      8.2417
C      5.9812     14.6564      8.7575
H     -0.4410     14.6834      9.1765
H     -2.7049     21.0914      9.3244
H     12.8879      4.4812      1.4912
H     31.7620      9.2695     13.0697
H     12.8902      3.5636     -0.2382
C     27.4548     10.1519     13.7524
H      3.2116     17.6827      9.1825
H     10.3500      9.5599      3.0965
268

C     32.6421      9.2221     13.5802
C      4.1648     14.4390      6.7886
C      2.7860     15.8270      1.0962
C      7.0710     17.8740      2.5288
H      9.7462      3.1672      2.8374
C      7.5388     16.3671      2.8724
C     16.0400      3.9060      5.4306
C     19.0721      9.8563     10.9669
C     28.5947      6.9286     19.3708
C      5.9476     14.9135      4.3042
C     19.0557      8.5043     10.0411
C     26.6456      8.8252     13.6477
N     -0.2710     16.0600      6.1963
C      0.8641     19.0288      0.2396
O     11.5250      2.0883      2.7147
C     16.1063      3.7772      6.9775
H      0.6907     19.2700     -0.7486
C     28.4568      6.0357     17.1834
C     29.2026     10.2934     16.8834
H      1.9100     12.7262     10.1053
H     10.7347      2.7061      5.9040
H      6.1275     18.2348      3.4208
H     20.4044     11.2897      9.4223
C     29.7392      8.8860     16.3136
H     20.0644      9.6041     11.4408
H      7.8925     16.3794      3.9533
H     25.3122      7.4157     10.4965
H     11.8690      4.7813      6.0287
C      3.1760     15.3269      7.4197
H     -3.7791     23.0427      0.7951
H      6.8967     15.0389      4.6862
O     27.9857     10.5631     14.8270
C      8.6031     13.4244      8.0324
C     19.4849      6.1111      9.9683
H      2.0611     18.5040      9.4299
C      6.2187     15.6469      2.9579
H     19.0309      4.3167      7.6737
H     18.3064      9.9911     11.6990
H      5.3555     10.9150      6.5082
H     17.0182      7.6339      9.8757
C     30.2755     10.4040     17.9232
C      9.9353      8.3265      4.8672
O      1.8848     21.4069      4.8691
C     -1.8745     20.0247      7.0453
C     21.5848      8.2788     12.1268
C     33.1443      7.9917     13.0070
C     19.0255      7.3215     12.2150
H      5.1426     17.3289      2.0126
H     30.0858      9.6184     14.3937
H      1.6689     12.1230      3.0207
H     -4.5951     17.7570      9.6479
H     28.3003     10.5125     17.5715
C     19.6634      7.3691     10.8987
C      8.1362     18.6668      3.4152
H     33.4902     10.8192     12.5855
C     11.7705      6.3721      4.7964
H     27.8959      8.5035     21.0821
H      4.3626     13.7851      2.6961
H     18.5827     11.8165      9.5022
H     30.4045      5.3547     15.4158
C     10.1496     11.6704      7.1364
C     18.3334      5.8646      9.3176
C     28.6409      7.3011     17.8670
C     17.3820      5.6168     13.3072
C     30.4811      8.9493     15.2114
H      9.0557      7.4373      4.6660
H      8.6276     21.0019      2.8443
H      4.3930     14.1415     10.6467
H     32.1461     11.2349     18.2149
C     -0.0605     15.4395      8.5863
C     26.3376      8.5958     12.1565
C      1.6366     14.4836      6.9960
C     -0.1381     19.3368      1.1599
H     18.0528      8.1021     12.1248
H      9.3250      3.3658      5.0096
H      6.5968     17.7888      4.8404
H     19.4861     11.9028     10.9412
C     22.8993      7.7923     12.8908
O     27.6188     11.0802     12.5574
C     19.6453      8.6660      8.6631
C     28.7544      8.1672     20.4386
C      3.7139     14.3529      9.6478
C      3.3027     14.6020      4.6114
H     -2.4362     23.2065      2.0843
H     17.0451      6.4462     12.6395
C      3.8217     16.4331      3.2537
H      8.7075      9.5378      5.7259
C     -2.3767     21.7176      0.9366
C     23.7420      7.4866     11.7300
H      0.6409     23.2348      6.0081
C      5.3753     15.7770      5.3377
H     31.0987     12.0024     16.9023
H      8.1698     16.2260      2.1784
C      3.1081     12.3156      8.0897
C      5.3935     11.7776      7.3504
C     11.1172      4.6362      3.0536
C     29.0370      9.4871     19.7221
C      2.4909     16.3055      2.3535
C     17.5507      8.5165      9.7934
H      3.2317     11.0563      8.2796
H     28.7920      8.1032     13.3880
H     10.0587      4.6043      1.3103
H     26.1780      9.7327     12.0490
H      2.0183     16.1977     -0.7761
O      4.8311     20.0099      6.6469
C      0.4230     21.0581      4.5636
H     29.4046     10.5944     20.4088
C     10.6035      8.5449      3.4954
C     10.9211      7.5607      2.7553
H     18.8092      9.3493      8.4496
C     -2.9936     19.9083      7.7949
H     28.5401      7.6509     11.5087
H      6.3554     14.8588      2.2273
H     -1.0574     15.8927      8.5766
C      3.5364     14.4940      0.7623
C     -0.1628     21.7592      1.9194
C     11.3170      2.8807      1.2874
C      0.1811     16.6167      3.5838
C      7.7999     11.3073      7.1222
H      1.3275     13.0822      4.2960
H     -3.9236     20.1131      7.2672
H     27.8985      9.8170     19.4088
H     27.5945      7.3344     12.9616
O      0.1506     22.5288      6.4802
C      6.6922     12.1791      7.4956
C      0.4787     19.5428      6.6404
C     27.8112      7.8929     13.8867
C      0.6033     20.8671      3.0067
H      9.4088     14.0837      8.8868
C      2.4590     14.1237      3.4020
C      0.3486     15.3552      7.1509
C     10.5003     10.0596      6.9283
C     10.3104      2.9928      4.8982
C     31.4983     11.0689     17.4951
C      3.1306     16.6986      9.3983
C     12.7100      3.4654      1.1376
C     -1.2754     21.0798      1.5088
C      4.5511     12.6023      8.1280
N      2.0864     12.8071      3.7698
H      4.0950     12.8466     -0.2201
C      3.2134     13.4694     -0.1859
O     29.8162      6.0509     15.2708
C      9.3854     19.6807      0.9360
H     31.0223      9.2503     19.2143
H      1.7037     13.6342      7.9629
C     10.3363      3.9299      2.1110
C     -3.0282     19.9856      9.2319
H      2.0590     13.8256      5.9285
H      7.9388     17.7256      0.7135
H     20.6784      9.5253      7.0098
C     -3.0095     22.7889      1.5062
H     17.1114      9.1341      9.1955
H      1.5773     20.0913      9.3141
H     10.3174      5.9871      5.9404
H     27.5943      8.1323     10.2282
H      3.2665     13.9702     -1.1401
H      0.4586     16.2229      9.2020
C     27.9179      7.5037     15.3305
H     17.2863      6.3393      9.4139
C     27.7844      8.5519     11.2890
C     19.3747     11.1467     10.1532
H      3.3822     16.6886     10.6617
H     29.3394     10.9333     16.1681
C      4.2332     21.0323      4.4598
C      7.8597     20.1161      2.8780
C     33.0562     10.5213     13.6053
C     31.8609      8.8976     15.0256
C      4.0122     19.0387      6.4062
C      1.8688     17.7245      2.1296
C     18.7546      6.1210     13.0273
C      5.5118     20.3046      4.3808
C      7.8500     19.9286      1.2809
C     17.1354      5.0696      7.4796
C      1.7654     18.0152      0.7270
H      7.5262     20.5241      5.0025
C      5.9498     20.0097      5.6815
H      9.0392     18.7643      0.4713
H     13.6234      2.7190      1.0691
C      7.0854     18.5649      1.1004
H      0.2258     15.7257      3.0436
O      7.1742     20.4834      6.0499
H     21.2370      9.3010     11.6713
H      1.9237     15.2493      3.2151
H     -0.7045     22.5273      2.3453
H     17.0624      4.6880     13.0038
H      4.4512     18.3055      4.3083
C     25.0226      7.8774     11.4212
H     -5.2930     18.4910      8.0845
C     28.5528      6.1458     15.6805
H      0.4699     18.5871      8.9599
C     10.7573      4.2086      4.3970
C     13.2930      6.7172      5.0942
H     16.9272      8.9485     10.6183
H      3.3076     12.5450      5.3477
C     14.1940      5.6206      4.6341
H      3.8567     12.5816      1.9816
H     -0.5982     19.2268      8.6915
C     -5.0723     18.7725      9.2012
C      4.6817     13.7464      8.7946
O      6.1650     17.1582      5.5318
C      6.3397     20.5140      3.0549
C      9.7493      9.5693      5.5923
C     -0.0031     19.3443      2.6681
C     11.5348      6.1967      3.3408
H     29.8684      7.9728     20.8450
H     28.0970      9.6492     10.9987
H     10.1039      2.2116      4.1602
C      2.6057     13.0546      9.5737
C      0.7051     18.1635      3.1297
C      5.0433     16.3904      2.6826
H      0.7537     17.1204      7.4433
H     21.2381      8.0146      7.6057
H     10.9697     11.5959      7.6603
H      7.9258     11.0156      6.2060
C      1.5308     19.1110      8.7309
C     11.1014      5.2749      5.5528
C      3.4468     13.6091      2.2159
C     14.4121      4.3201      5.5397
C      1.5389     18.8286      7.2013
C      2.4689     16.8882      0.1640
H     -0.8511     18.3424      1.2545
H      4.4906     14.6609      0.5501
H      2.2324     13.0660     -0.1018
H     12.0523      1.3390      2.4812
H     10.1552      9.3038      7.6463
H      5.6745     14.1061      3.6163
C     -0.5562     21.8750      5.2715
C     -4.2745     19.9780      9.7739
H      5.7351     19.7643      2.4492
H     32.1410     11.3516     13.5553
C      8.9437     12.0818      7.6323
H      9.6753     19.6110      1.8462
H      9.6367     10.7171      5.1482
H      6.1822     15.0049      9.4895
C     -0.5429     19.8478      7.5543
C      0.4169     16.5362      5.0162
O      8.8611     18.2879      4.1900
C     -1.7628     20.5283      5.3918
C      6.3982     15.4759      7.7178
C      5.6643     15.0981      6.6184
C      3.5653     13.5157      5.3981
H     19.3096      7.5871      8.0548
H     17.8416      3.8383      8.9231
H     21.5796      9.5433      8.5562
H     11.5521     10.3492      6.8627
C      1.6484     17.3071      7.0411
H     10.8297      2.4241      0.3753
C      3.6075     18.1761      5.0400
C      3.2772     15.5138      8.8682
H     33.3063     10.8127     14.7120
C     21.1142      7.5358     10.9569
H     16.7309      5.7971      8.2565
H     23.5470      7.2132     10.6505
H      7.0059     16.3164      7.9981
C      3.8925     15.9525      4.6855
C     29.9379      9.2835     18.6036
C      7.0045     13.4499      8.4270
C     20.8754      8.9396      8.0066
C     18.3209      4.8228      8.3134
C      6.0033     14.5903      8.6237
H     -0.0063     14.7329      9.2523
H     -2.3164     20.6953      9.4616
H     12.5407      4.5445      1.6177
H     31.5062      9.3079     13.4315
H     12.8944      3.6054     -0.0848
C     27.5036     10.0933     13.8704
H      3.1883     17.4639      8.6813
H     10.9427      9.5478      3.5478
