264

C     20.2271      9.0246     14.0687
N     -1.6784     10.4751      1.5019
C      4.1710      1.5878      7.2081
C      2.2722      2.8441      1.3775
C      7.0621      5.1155      2.4682
C      6.9207      3.8488      2.7996
C      3.5928      3.8437      5.4681
C     -6.7060      9.8751     10.7001
C     16.2221      7.1742     19.5628
C      5.8911      1.5243      3.6806
C     -7.2051      8.7114      9.8556
C     13.7294      8.9688     13.8718
N     -0.1946      2.7498      6.1716
C      0.4208      5.9436      0.6258
O     -1.4116      3.0015      1.4280
C      3.3833      4.0033      7.0253
C     15.6790      6.1300     17.3294
C     16.1644      9.9881     16.8223
H    -11.9097     13.5348      9.0366
H     -3.3064      3.4378      4.2788
H     17.7829      6.5232     16.3628
H     -6.6384     10.5200     12.3510
C     16.8376      8.9026     16.3606
H     -9.1306      7.9072     11.0603
H     -6.6900     10.3548      9.6851
H      7.3805      3.6651      3.9358
H     13.2160      7.4092     10.9315
H     -0.7747      5.0593      6.4934
C      3.1671      2.6840      7.7171
H      6.8237      0.5638      3.7316
O     14.9495     10.7802     15.1125
C     -4.8899     12.6935      8.6914
C      6.5700      6.2673      9.9841
H      2.2311      0.6218      6.5180
H      3.1184      7.1928      9.1332
C      5.9742      2.8675      2.6047
H      6.5222      4.8482      7.8926
H     -5.5434      9.7001     11.0218
H     -8.0140     11.1023      9.1738
H     -8.4002      7.1793      9.4631
C     17.3449     10.6645     17.7966
C     -2.8592      8.3480      5.2969
O      1.9913      8.4870      4.8474
C     -1.4900      7.9472      7.5870
C      8.7161      8.0196     12.1353
C     20.6555      8.0062     13.2846
C      6.3748      7.4816     -0.5129
H     17.0315      9.6785     14.6150
H      1.7738     -0.9573      3.1452
H     -5.1883      5.8087      8.2978
H     13.7387     10.9759     15.0949
C      7.0090      6.5604     11.3137
C      7.7373      5.8990      3.5519
H      8.9815      7.1733      1.7462
C     -0.9974      6.5963      5.1671
H     16.1900      8.5757     21.1030
H      3.3584      0.1681      1.2208
H     -6.7036     12.1984     11.5554
H     14.7626      7.4169     13.1279
C     -3.3102     11.3278      7.7690
C      5.6654      5.1222      9.7005
C     15.8067      7.4369     17.9766
C      4.6656      6.1833      0.2632
C     17.7780      9.2360     15.3792
H     -3.6283      7.7726      5.7658
H      8.8380      7.5566      3.8023
H     -9.9656     13.9009     10.4372
H     -6.6650     12.2523      9.9941
H     17.8263     12.6830     17.0182
C     -0.1565      3.6500      8.3220
C     13.3993      8.7410     12.3946
C      1.7535      2.0128      7.3840
H     -2.0103      7.6832     10.2621
C     -0.6256      6.3732      1.6709
H      5.6825      8.3030     -0.9226
H     -2.3586      2.2135      4.1481
H     -8.1194     11.5114     11.5689
C     10.1314      7.3377     12.7212
O     14.0712     11.1657     13.2899
C     -6.5818      8.8240      8.6586
C     16.8002      8.1319     20.3896
C     -9.6356     14.1438      9.4513
C      2.8075      1.7499      5.1283
H     -0.6703     10.7828      1.1409
H     -2.9055     10.2445     -0.0771
H     -6.8190     12.0783      6.9666
H    -10.3523     17.1649     10.8199
C      3.7905      2.9421      3.2834
H     -4.5268      9.2447      5.4341
C     -2.1019      8.4049      0.7137
C     11.2003      7.1967     11.7015
C      5.3859      2.0200      5.0497
H      3.8597      0.0816      5.4412
H     -4.7193     13.5664      8.1675
C    -10.5451     12.1451      8.4164
C     -8.3113     11.1644      8.1596
C     -2.1653      5.3213      3.5786
C     16.7044      9.2648     19.3309
C      2.4377      3.4249      2.6887
C     -8.4604      7.8974     10.1263
H     15.8522      8.4776     13.9350
H     -3.7819      4.1698      2.5212
H      2.1523      4.0535     -0.9331
O      5.5340      6.6497      6.6842
C      0.5367      8.0599      4.6740
H     -8.5062     10.1264      7.8598
C     -2.8430      8.3216      3.8313
C     -1.9033      7.6481      3.0897
H     -7.0790      8.6135      7.7299
C     -2.6853      7.2773      8.0354
H      2.5723      4.0289      5.2365
H     13.7384      8.7409     10.4854
H      6.1250      2.5920      1.5209
H      0.7579      4.0388      8.6659
C      3.2319      1.8708      0.9860
C     -0.0657      8.7712      2.2069
C     -0.1247      3.1202      1.3924
C     -0.1451      4.0391      4.0383
C     -5.7281     10.7126      7.5658
H     -3.5183      7.2658      7.4402
H      0.5811      5.8452     -0.4068
O     -0.1736      9.9507      6.0271
C     -6.8308     11.6928      7.8450
C      0.7421      7.0051      7.0092
C     14.8328      7.8757     14.0779
H     15.8338      7.9596     16.1615
C      0.5809      7.7395      3.1411
H     -4.3191     13.1264      9.6833
C      2.7217      0.6479      3.2214
C      0.3742      2.4004      7.6496
C     -2.7964     10.6765      6.4525
C     -2.4025      3.1200      4.8088
C     17.9680     11.8039     17.6774
C     -9.6403     16.7611     10.1439
C      1.0118      2.3928      0.8490
C     -1.1744      7.9642      1.6352
C     -9.2171     12.4041      8.2764
N      2.4183     -0.4385      3.7492
H      3.7779      1.9079     -1.3200
C      3.0269      1.5062     -0.5228
O     17.2091      6.4610     15.4756
C      9.6898      6.0858      0.3385
H     18.8811      9.7389     19.0333
H      0.2411      1.4363      8.2073
C     -2.6169      4.6158      2.5793
C     -2.8615      7.3376      9.3886
H      1.9190      2.1411      6.4007
H      7.3222      4.6943      0.6850
H     -4.4648      8.9139      7.7694
C     -2.2313      9.6635      0.4690
H      4.6345      4.8430     10.3620
H      1.6583      7.1811      9.2782
H     -1.0523      9.4065      4.2142
H     15.3584      9.0942     11.3473
H      1.9813      1.9301     -0.8328
H     -0.4416      3.3536      9.3139
C     14.9751      7.2943     15.4628
H     -1.7175     10.1176      2.3833
C     14.2331      9.0309     11.4486
C     -7.1788     11.0524     11.4689
H     15.4779     10.0449     17.5562
C      4.0463      7.9085      4.3824
C      7.8415      7.3482      3.6113
C     21.3954      9.1670     14.8830
C     18.8634      8.4908     15.0301
C      4.2578      6.0547      6.4676
C      1.9799      5.0069      2.4350
C      5.9786      6.4857      0.5001
C      5.3857      7.4168      4.3161
C      8.2940      6.6880      1.0780
C      4.3190      4.9281      7.5055
C      1.4329      5.0997      1.0887
H     -2.5659      5.3517      6.3176
C      6.3313      7.3896      5.5533
H      9.2404      5.2220     -0.4805
H      1.1096      1.3133      0.5090
C      7.0786      5.7133      1.2825
H     -0.0612      3.0414      3.5664
O      7.4266      7.0845      5.9447
H      9.0443      9.0615     11.5023
H     22.3593      8.6915     14.6021
H      1.7703      3.1043      3.4284
H     -0.0315      9.6656      2.4828
H      3.5172      5.0429      0.1295
H      4.7440      5.0393      4.2904
C     12.5352      7.6956     11.7684
C     15.6994      6.1558     15.7467
H      2.1634      5.6506      9.3801
C     -1.5851      4.3480      4.6806
C      0.4137      6.9483      5.4501
H     17.7448      7.9670     20.3592
H      1.8364      2.0355      4.8612
C      1.1478      5.7604      4.9321
H     16.3690     10.7235     16.1029
H      0.0066      7.4122      9.0813
C     -5.2375      6.4834      9.0709
C     -8.5871     13.7127      8.4474
C      6.3693      7.9562      3.3357
C     -3.6966      9.7520      5.5170
C     -0.0296      6.2897      3.0448
C     -1.2595      6.4659      3.8114
H     -8.6058      8.9204      9.5394
H      3.9759      6.9257     -0.3454
H     -2.8677      3.0750      6.0533
C    -10.8411     13.7646      8.8317
C      0.8276      5.0607      3.5403
C      4.7698      3.4512      2.6304
H      1.5326      4.9500      7.9671
H     -5.6823      7.4344      8.4519
H     -2.7224     11.8612      8.4101
H     -5.4484     10.4487      6.4924
C      2.3259      6.5507      8.8455
C     -1.6135      5.2326      5.7312
C      2.7467      0.7761      1.7400
C      1.2104      4.7827      5.8228
C      2.0331      6.3791      7.3232
C      2.4345      4.5520      0.0676
H      4.2760      2.3774      1.5637
H      2.7581      0.4683     -0.6541
H      5.0855      0.7884      3.3693
C     -0.5021      8.8773      5.1311
C     -4.1542      6.8073      9.8670
H      4.1421      5.6135      0.7973
H     21.6926     10.2107     14.7146
C     -4.5858     11.5922      7.9419
H     10.0383      5.1951      0.8743
H     -3.9060     10.1248      4.5344
H     -6.7256     14.5591      9.4177
C     -0.0111      7.5529      7.9922
C      0.4826      3.6721      5.3531
O      8.7047      5.3201      4.2533
C     -1.5533      7.9938      5.8050
C     -6.3856     14.5164      7.3820
C      5.3830      1.5570      6.4261
C      3.2507      0.7805      6.2330
H      9.5445      5.7974      4.4427
H     -5.8958     15.4940      7.2576
H      5.5864      3.2726      8.4022
H     -4.8309      9.9739      9.0595
H      0.6908      9.5776      6.7129
H     18.9097     11.5581     18.3990
C      1.9807      4.8513      6.9987
H      0.4213      3.6947      2.1179
C      4.0217      5.3073      5.1533
C     -9.5973     15.5864      9.2674
H     21.5360      9.6276     15.9987
C      8.2577      7.1656     11.0909
H      3.8926      5.6269      8.2312
H     11.0765      6.5407     11.0039
H     -5.9650     13.6367      7.2699
C      3.8595      2.5831      4.6348
C     17.6891      9.6333     18.6421
C     -6.3673     12.5315      8.9935
C     -5.3488      9.4151      8.4335
C      5.6082      4.4002      8.4947
C     -7.0598     13.8092      8.7189
H     -0.8259      4.0874      7.4833
H      3.0931      3.6603      0.6381
H     20.2783     10.0887     13.9307
H      7.1350      5.7396     12.0456
H     -0.9233      3.5945      6.2538
C     14.6408     10.3197     13.8636
H     -9.5231     17.4020      9.2929
H     -3.1938      9.0971      3.3190
