271

C     19.5423      8.9939     13.7496
C      4.1371      1.4921      6.9164
C      2.7017      3.0287      0.9095
C      7.1063      5.0842      2.6301
H     -2.9327      3.4041      2.3459
C      7.3136      3.5196      1.9735
C      3.1780      3.9059      5.3374
C      6.6413      9.8385     11.1823
C     15.8731      7.0352     19.4413
C      6.0748      2.5199      4.1808
C      6.0084      8.8475     10.3518
C     13.8287      8.6583     13.5969
N     -0.2724      3.0998      6.1837
C      0.7391      5.7062      0.1680
O     -1.5023      1.8028      2.7248
C      3.2299      3.8142      6.9089
H      0.7105      6.1434     -0.8377
C     15.4842      6.2263     17.4432
C     16.2813     10.5625     16.8371
H      1.6129      0.5808      9.4439
H     -2.3600      2.2288      5.2894
H      6.1018      4.9886      2.8590
H      7.1801     11.0421      9.5636
C     16.7757      9.0334     16.3702
H      7.7849      9.7527     11.4652
H      8.4935      3.2992      2.5121
H     12.2093      7.4000     10.4905
H     -1.1636      5.1481      6.5042
C      3.0531      2.4078      7.5926
H      9.1680     -2.5237      0.5769
H      6.9097      3.1372      4.4026
O     14.5991     10.1114     15.0110
C      8.8301      0.2909      8.3541
C      6.3572      6.5395      9.7543
H     15.5459     -6.4965      9.3612
C      6.1800      2.8597      2.6376
H      6.2877      5.7709      7.0769
H      6.2583     10.2907     12.0479
H      5.2295     -2.4781      7.1325
H      4.2734      9.3009     11.3078
C     17.0846     10.7865     18.0514
C      9.9945     -4.6969      4.9496
O     14.7825     -4.3732      4.7815
C     11.4054     -5.6667      7.0149
C      8.6192      8.1159     12.0872
C     20.4465      7.9184     13.1122
C      6.2632      7.1731     -0.5642
H      4.8353      3.1279      1.1585
H     17.3784     10.0284     14.7083
H      1.1440     -0.3440      3.2881
H      7.6233     -7.8478      9.7585
H     15.3145     10.3347     17.1092
C      6.5678      7.5322     10.7838
C      8.0453      5.8814      3.3550
H     20.3958     11.1030     13.3845
C     -1.1465      6.3770      4.7572
H     14.9259      8.6299     20.9706
H      4.1033      0.3966      2.5926
H      5.9591     11.4801      9.7972
H      4.7143      6.3175      1.0888
C     10.3428     -1.5609      7.5333
C      5.2405      6.0093      9.1183
C     15.6915      7.6587     18.0143
C      4.9151      5.4528      0.4536
C     17.4790      8.9684     15.2340
H      9.5049     -5.5220      5.5780
H      9.0130      8.0481      3.2305
H      4.2832      0.7523     10.1296
H      7.2477     -0.1466      9.3607
H     19.2108     11.4407     18.0204
C     -0.0881      2.8041      8.6512
C     13.3322      8.4800     12.1658
C      1.7312      1.9179      7.0627
C     -0.4870      6.3221      1.0831
H      5.1445      7.3538     -0.5614
H     -3.3606      3.7407      5.6633
H      5.6853      4.7079      6.1905
H      6.7885     11.7221     11.2069
C      9.9804      7.3785     12.7950
O     14.6285     10.8361     12.8620
C      6.3578      8.8711      8.8381
C     15.7171      8.3588     20.4378
C      3.6862      1.3169      9.4146
C      3.5352      1.4121      4.3908
H     10.9392     -2.3621      1.3128
H      4.3964      5.9319     -0.2953
C      3.8796      3.5574      3.1215
H      8.6456     -3.3451      5.4124
C     10.6459     -4.4154      0.6643
C     10.8739      7.5037     11.6732
H     12.4396     -2.3595      6.1238
C      5.1605      2.8809      5.1026
H      7.1068      3.6213      0.8519
H      9.1279      1.3000      8.0621
C      3.1807     -0.6087      8.1959
C      5.4236     -1.3620      7.3279
C     -1.9384      4.8805      3.0837
C     16.0583      9.5978     19.7251
C      2.6825      3.5763      2.2897
C      4.5193      8.9323     10.3922
H      2.5993     -1.3581      7.6726
H     15.9894      7.8666     13.5701
H     -2.7650      4.3525      1.1262
H     12.8693      9.5447     11.8868
H      2.6240      3.2946     -0.8652
O      5.1583      7.1443      6.4872
C     13.5158     -4.9581      4.4418
H     16.5408     10.2260     20.5124
C     10.2239     -4.4657      3.5613
C     10.7244     -5.6195      2.7595
H      5.9978      9.6489      8.4145
C     10.1418     -5.6811      7.6041
H      1.4772      2.7320      4.2190
H     14.8625      7.5795     11.7260
H      6.0647      1.8029      2.3587
H     -0.0777      3.9698      8.7539
C      3.3467      1.7886      0.9257
C     12.8136     -4.3293      1.9628
C     -1.3567      2.7841      1.7398
C     -0.1699      3.7770      3.8662
C      8.0192     -1.3904      6.9539
H      1.4426      0.2818      4.9312
H      9.0079     -5.7050      7.0421
H     15.2140     10.2251     19.2015
H     14.9111      6.6600     13.4568
O     13.1251     -3.1769      5.8778
C      6.6776     -0.7621      7.4841
C     13.5857     -6.1613      6.5838
C     15.0248      7.5476     13.9320
H     15.4610      8.7718     15.5592
C     13.6656     -5.3470      2.8768
H      9.1461      0.3417      9.3293
C      2.6271      0.9039      3.3978
C      0.5063      2.8315      7.2314
C     10.1027     -3.1825      7.1405
C     -2.7861      3.0999      4.9796
C     18.1169     11.5550     17.9012
C      3.1366      3.7271      9.5272
C      0.0777      3.0675      1.0450
C     11.6115     -5.1859      1.3389
C      4.4800     -0.4694      7.8350
N      1.6413      0.2788      3.9377
H      3.4593     -0.0875      0.2056
C      2.9845      0.8182     -0.1613
O     17.1424      6.2193     15.7315
C      9.6302      6.4331      0.8565
H     18.1125      9.0238     18.9715
H      1.6137      0.9499      7.8144
C     -2.1935      4.0847      2.0223
C      9.9022     -5.8629      9.2023
H      1.9381      1.2532      6.1294
H      8.1334      5.0688      0.9021
H      7.7128      8.9195      7.0927
C     10.2071     -3.0814      0.8600
H      3.9860      7.9785     10.0513
H     13.7942     -6.0974      9.2848
H     -2.6889      5.0336      5.7787
H     11.8246     -3.6939      4.1215
H     14.1178      8.2822     10.2453
H      3.5530      0.9995     -1.0468
H      0.6978      2.6593      9.2826
C     15.0049      7.4843     15.3538
H      4.3578      6.7638      9.0163
C     14.6123      8.3397     11.1893
C      6.6632     11.0397     10.4613
H      2.5440      3.5409     10.5783
H     16.3278     11.1622     15.7853
C      4.0948      8.3215      4.8421
C      7.9395      7.3538      3.0197
C     19.7517     10.4822     14.0690
C     18.7431      8.3433     14.9612
C      4.1128      6.0729      6.3593
C      2.1252      4.9974      2.1699
C      6.3351      5.9899      0.2847
C      5.6084      7.7233      4.4425
C      8.1908      6.9585      1.2868
C      3.9713      5.1051      7.4321
C      1.7998      5.1192      0.8392
H      7.9695      6.6022      5.5114
C      6.1918      7.5067      5.6828
H      9.6798      5.3863      0.4518
H     -0.0301      2.4512      0.2322
C      7.2937      5.7070      1.2840
H     -0.1813      3.0651      3.0591
H     10.5929     -6.4980      9.5026
O      7.5030      7.4249      6.0754
H      1.9158      3.0862      2.8040
H     12.6397     -3.3962      2.3775
H      4.4010      4.7165      0.8910
H      4.5034      5.3549      4.4934
C     12.2486      7.7467     11.4791
H      8.0561     -6.8017      8.1413
C     15.6571      6.1819     16.0027
H     14.4488     -7.7836      9.1027
C     -1.7020      4.1444      4.4340
C      0.3734      6.6166      5.0858
H      4.2773      9.8029      9.7525
H      3.3483     -0.2797      5.6860
C      1.2436      5.6305      4.5751
H     12.5934     -6.0896      8.6321
C      7.5965     -6.9068      9.2707
C      4.8153      0.8353      8.2307
O      6.0443      4.2987      5.2982
C      6.4604      7.7425      3.2327
C      9.8107     -3.3852      5.6209
C     -0.1032      6.1239      2.5830
C     -1.3363      6.2737      3.3036
H     16.6147      8.3176     21.0996
H     15.4825      8.9919     11.6572
H     -3.2859      2.9310      4.1098
C      2.6838      0.3900      8.9811
C      0.5879      5.1040      3.3602
C      4.9085      3.5997      2.3272
H     14.4254     -9.0558      7.9039
H      8.4222      7.7559      8.7189
H     11.0367     -1.6745      6.6812
H      8.0820     -1.8553      6.1571
C     14.8559     -6.8654      8.8131
C     -1.6808      5.2144      5.3744
C      3.1487      0.8684      2.0209
C      1.5494      4.3034      5.5625
C     14.7503     -6.7237      7.1046
C      2.6398      4.0058      0.0084
H     -1.4786      5.7203      0.9568
H      4.3068      1.9084      0.4059
H     10.8619     -1.4911      8.4353
H      1.9308      0.3172      0.1579
H     -2.3557      1.5318      2.6898
H      9.0859     -3.8242      7.6772
H      5.7034      1.4669      4.0622
C     12.3608     -4.2851      5.0021
C      8.6943     -6.0972      9.8078
H     17.5737      6.8465     16.5199
H     18.8389     10.8234     13.5910
C      9.1815     -0.7796      7.5169
H     10.2023      6.1700      2.0489
H     10.6190     -2.7533      5.2312
H      6.1034      1.8645      9.5973
C     12.6606     -5.9293      7.5192
C      0.7364      3.1284      4.9975
O      9.0225      5.5826      4.0348
C     11.4394     -5.3214      5.4606
C      6.1843      2.5560      7.4721
C      5.3217      2.1837      6.3452
C      3.4534      0.7295      5.6343
H      5.3670      8.1309      8.1926
H      5.7751      4.1514      8.4179
H     11.1735     -3.6192      7.2101
C     14.7646     -8.3448      6.9255
H     -1.9422      2.9625      0.8074
C      3.7312      5.2999      5.1105
C      3.3754      2.5302      9.0067
H     20.2103     10.3493     15.1522
C      8.2123      7.4729     10.8631
H      3.4997      5.8223      8.0487
H     10.5830      6.7595     10.9235
H      7.0299      3.1793      7.4979
C      3.7247      2.8461      4.3991
C     17.1884      9.5260     18.7339
C      7.2119      0.3090      8.3985
C      7.8367      8.7521      8.4026
C      5.5147      5.1491      7.9157
C      6.2359      1.5786      8.4287
H     -0.8033      2.4990      9.4800
H     10.1928     -4.8518      9.6201
H      0.8490      2.9570      1.7365
H     18.7751      9.0366     13.0012
H     -0.0274      4.0758      0.6118
C     14.6527      9.7861     13.8007
H      2.5594      4.5664      9.1099
H      9.8921     -3.7053      2.8203
271

C     19.6070      9.0350     13.6861
C      4.3917      1.6273      7.1799
C      2.6212      2.9725      0.9632
C      7.0942      5.2917      2.6803
H     -3.3707      3.9262      1.9604
C      7.6921      3.8007      2.7540
C      3.1448      4.0606      5.2950
C      6.4015      9.6821     11.0945
C     15.7123      7.1085     19.4558
C      6.5474      2.1657      4.0287
C      5.8220      8.4862     10.3307
C     13.7157      8.4723     13.5292
N     -0.1411      3.0148      6.3802
C     13.3716     -7.2079      0.2201
O     -1.4146      1.8818      2.5242
C      3.1755      3.9413      6.7335
H     13.5061     -6.5757     -0.7159
C     15.5084      6.3704     17.2184
C     16.5461     10.5070     16.8943
H      1.9204     -0.1928      9.7234
H     -1.9601      3.1537      5.8115
H      6.3341      5.3641      3.5124
H      7.1237     10.6890      9.3793
C     16.9980      9.1511     16.5184
H      7.3861      9.5798     11.3644
H      8.0753      4.0124      3.8430
H     12.4468      7.1731     10.4304
H     -0.9500      4.8604      6.5891
C      3.2206      2.6157      7.4735
H      9.4837     -2.5105      1.0373
H      7.6022      1.7743      4.1387
O     14.9224     10.2608     14.6322
C      9.0696      0.2890      8.1276
C      6.4028      6.2754      9.7701
H     14.6642     -5.3967      8.9042
C      6.4914      3.0157      2.8046
H      6.2801      5.2070      7.6342
H      5.5274      9.6576     11.9017
H      5.5326     -2.1992      7.3179
H      4.3376      8.3492     11.8051
C     17.3718     10.7499     18.0132
C      9.8715     -4.7847      4.8079
O     14.5079     -4.2417      4.7971
C     10.9690     -5.4957      6.8840
C      8.7371      8.2660     12.1713
C     20.6019      7.9977     13.1968
C      6.6597      7.2846     -0.4594
H      4.8066      3.7558      1.4578
H     17.4862     10.4909     15.1209
H      2.2848     -0.5099      3.6201
H      7.6115     -7.8728      9.9938
H     15.6527     11.1906     17.3658
C      6.7329      7.2940     10.8110
C      8.2591      6.0132      3.2639
H     20.9164     10.6737     13.2551
C     -1.2276      6.4671      5.0261
H     14.9911      8.3084     21.3718
H      4.6071      0.5717      2.2275
H      5.5595     10.9614      9.4805
H     17.3266      6.5824     14.6694
C     10.5708     -1.8577      7.4619
C      5.1788      5.8453      9.3153
C     15.5788      7.6974     17.9063
C      4.6388      6.0092     -0.0625
C     17.9794      9.4082     15.5007
H      8.9770     -5.5896      4.6219
H      4.2773      1.3149     10.4263
H      7.2762      0.0501      9.3394
H     18.6459     12.3530     18.5560
C     -0.1503      2.6231      8.6727
C     13.3782      8.4925     11.9301
C      1.8474      1.8315      7.3454
C     12.3382     -6.6281      1.2305
H      5.9816      8.2374     -1.0816
H     -3.6434      3.1782      4.7112
H      5.0673      4.3881      5.5312
H      6.6552     11.7902     10.5602
C      9.7779      7.6106     12.7645
O     14.2023     10.8138     12.4144
C      5.9116      8.8534      8.8218
C     15.8620      8.2300     20.6160
C      3.7855      1.3517      9.4689
C      3.5343      1.3554      4.8975
H     10.8651     -2.4727      1.1655
H      4.0726      6.7164     -0.5460
C      3.9060      3.4985      3.1622
H      8.9924     -2.7641      5.3385
C     10.6119     -4.5127      0.6770
C     10.9229      7.4656     11.5883
H     13.3769     -3.1829      6.3708
C      5.7168      2.7116      5.1350
H     18.2121     12.2088     16.6188
H      8.3793      3.3880      1.9959
H      9.1433      1.1797      7.3672
C      3.2245     -0.6874      8.3081
C      5.6821     -1.2549      7.3215
C     -1.9762      4.9292      3.3871
C     16.0214      9.4599     19.7146
C      2.4303      3.3580      2.4314
C      4.3828      8.4062     10.6014
H      2.6032     -1.4664      8.1353
H     15.9200      7.9035     13.5493
H     -2.1990      4.7988      1.2202
H     13.5337      9.6702     11.9333
H     15.5663     -8.9405     -0.8670
O      5.1034      7.1544      6.4036
C     13.2967     -4.9854      4.2984
H     16.1583     10.4485     20.3019
C     10.4591     -4.4477      3.3597
C     10.7951     -5.5362      2.6982
H      5.1462      9.4489      8.0911
C      9.7906     -5.6220      7.5333
H      0.9643      2.1162      4.7750
H     15.5981      7.5894     11.3922
H      6.5012      2.4147      1.9867
H      0.6876      3.0671      9.1865
C      3.3596      1.6590      0.9968
C     12.8430     -4.4245      1.8631
C     -1.6906      3.0038      1.7161
C      0.0415      3.8106      3.8466
C      8.0017     -1.5224      7.1835
H      1.7274     -0.1515      5.0045
H      8.8250     -5.6831      7.3192
H     15.0377      9.3562     19.1905
H     15.3276      6.4799     12.7803
O     12.4503     -3.4166      6.2528
C      6.9642     -0.7871      7.6648
C     13.3461     -6.0223      6.6569
C     14.8712      7.4317     13.6676
H     15.4621      8.2707     15.4373
C     13.4017     -5.4082      2.8102
H      9.7353      0.5328      8.9024
C      2.8528      1.0403      3.7866
C      0.3293      2.4584      7.3658
C     10.2023     -3.2186      6.9953
C     -2.4112      3.1575      4.7873
C     18.2093     11.8298     17.6859
C      3.1945      3.7150      9.7860
C     -0.4659      3.2755      0.7202
C     11.6097     -5.2430      1.4779
C      4.6511     -0.4645      7.9977
N      1.7767      0.3225      4.1585
H      2.3431     -0.1649      0.4261
C      2.7541      0.8425      0.0080
O     17.0990      6.1113     15.5813
C      9.3661      6.5181      0.7420
H     18.5846      9.4390     19.2368
H      1.6975      1.0601      8.1341
C     -2.2932      4.1415      2.2453
C     10.0166     -5.6595      9.1456
H      1.6857      1.5033      6.3424
H      7.7322      5.3785      0.4663
H      7.4000      9.6480      7.5669
C     10.0705     -3.3214      0.9353
H      3.7541      7.7194     10.0978
H     14.6588     -7.3534      9.2222
H     -2.6397      4.8070      5.6482
H     11.5953     -3.2327      4.5593
H     14.4970      8.0041     10.2972
H      3.1500      0.7090     -1.2348
H     -0.1841      1.7600      9.0710
C     14.8700      7.3154     15.2658
H      4.8811      5.0618     10.1079
C     14.7380      8.3236     11.1792
C      6.4533     10.8474     10.1118
H      3.8131      3.2393     10.2976
H     16.8715     11.3263     16.2737
C     17.0434      8.2972     17.7769
C      7.8073      7.3323      2.7556
C     20.0900     10.4583     14.0108
C     18.8524      8.4724     14.7693
C      3.8977      6.2650      6.2932
C      1.8515      4.9347      2.3425
C      5.9562      6.2897      0.3651
C      5.6206      7.6485      4.0980
C      8.0588      7.0086      1.2698
C      4.2180      4.9825      7.1187
C     14.6057     -7.9067      0.7513
H      7.9282      7.1186      6.1424
C      6.0215      7.4034      5.4931
H      9.5813      5.4826      0.5868
H      0.2927      2.6093      0.5499
C      7.1185      5.7930      1.2034
H     -0.4159      3.2486      3.0454
H     10.9281     -5.7632      9.4465
O      7.2308      7.8867      5.8561
H      9.1227      9.3205     11.6845
H      2.0405      2.3455      3.1146
H     12.4747     -3.2850      1.8633
H      3.9023      5.2109      0.4967
H      4.6282      5.3930      4.4238
C     12.4425      7.6635     11.3396
H      7.8539     -7.7841      8.6178
C     15.6901      6.2600     15.7388
H     16.1767     -6.8233      8.7417
C     -1.3444      4.0424      4.4082
C      0.2891      6.6086      5.1776
H      4.1417      9.5026     10.6968
H      3.1822      0.0354      6.5108
C      1.2406      5.5681      4.5810
H      3.1081     -0.1959      1.9696
H     12.2279     -5.9351      8.4442
C      7.7395     -6.9535      9.3681
C      4.9201      0.8819      8.2747
O      5.7379      4.1075      4.8222
C      6.4438      7.7338      2.9309
C      9.9377     -3.2722      5.4897
C     12.6815     -6.6833      2.6475
C     -1.5029      6.2283      3.4584
H     16.5271      8.5418     21.3483
H     15.3725      9.2567     11.4184
H     -2.0199      2.1232      4.4978
C      2.8219      0.1524      9.3910
C      0.7157      5.1617      3.2638
C      4.9265      3.7387      2.5461
H     14.1134     -8.7070      7.7543
H      7.8999      8.2246      7.8590
H     12.7345     -8.2486     -0.2899
H     11.2103     -1.3622      6.8031
H      7.7651     -2.5651      6.6557
C     15.0189     -6.6344      8.6475
C     -1.5088      5.0989      5.5065
C      3.4711      0.7773      2.3207
C      1.6635      4.2464      5.3646
C     14.6072     -6.6495      7.2828
C     15.4221     -8.9236      0.2951
H     11.5473     -7.3680      1.0734
H      4.3557      2.0733      0.6071
H      1.4844      1.1712     -0.2664
H     -1.1882      1.1469      1.8432
H      9.3735     -3.8499      7.3366
H      6.2536      1.1361      3.6646
C     12.1874     -4.2382      5.0042
C      8.7533     -5.9094      9.7715
H     19.0931     10.8181     13.9112
C      9.2550     -0.9658      7.5722
H     10.1530      6.6182      1.6322
H     10.3609     -2.5123      4.5862
H      6.4835      2.0558      9.7433
C     12.2665     -5.5999      7.3791
C      0.4667      3.1407      5.0419
O      9.1050      5.6309      4.0596
C     11.1583     -5.2443      5.5079
C      6.4926      2.3820      7.4510
C      5.5661      2.2964      6.5445
C      3.6367      0.8346      6.1375
H      5.4891      7.7252      8.7903
H      5.4794      4.0402      8.4145
H      7.8287      9.1350      9.4564
C     14.6814     -8.1931      6.8204
H     -2.4646      2.9925      0.8393
C      3.5828      5.3463      4.8823
C      3.6018      2.7392      8.9806
H     20.9215     10.7983     14.8336
C      8.1381      7.6186     10.8417
H      3.6269      4.8239      8.0878
H     10.2050      6.6936     11.2928
H      7.2587      3.1362      7.3167
C      4.0112      2.8719      4.6429
C     17.4353      9.6347     18.8811
C      7.4610      0.3077      8.3676
C      7.3847      8.9493      8.4613
C      5.4719      4.8782      8.0447
C      6.3016      1.3048      8.6001
H     -1.0532      3.2466      8.8837
H     -0.0261      4.3761      1.0430
H     18.6879      9.5103     13.0674
H     -1.1275      3.2707     -0.3131
C     14.4190     10.1728     13.5901
H      3.0734      4.7629      9.4645
H     10.5190     -3.4060      3.1225
