272

C     19.6399      9.0507     13.6198
C      4.0313      1.6397      7.0269
C      1.9731      3.1332      1.1251
C      7.1292      4.9303      2.0954
H     -3.1219      3.5068      2.7461
C      7.3992      3.4439      2.5344
C      3.0664      4.2253      5.6288
C      6.8733     -3.2389     10.2694
C     15.9790      7.1375     19.5095
C      6.2575      1.6175      3.6322
C      6.1862     -4.1934      9.3714
C     13.9907      8.8136     14.0106
N     -0.0482      2.6111      6.3288
C     13.6043     -6.9621      0.5523
O     -1.5463      2.0676      1.8953
C      3.2254      4.1856      7.1723
C     15.5296      6.2472     17.4250
C     16.4733     10.7224     16.9532
H      1.4540      1.1895      9.7373
H     -3.2589      3.4679      4.8734
H     17.1907      7.1958     15.1257
H      6.3832     -1.3894     10.8132
C     16.7453      9.4128     16.1879
H      7.7689     -2.5334      9.8282
H      8.2930      3.3471      3.1254
H     13.0006      7.1908     10.8618
H     -0.9217      4.6123      6.6255
C      2.9515      2.7485      7.6468
H     10.7161     -2.9380     -0.3388
H      7.1467      1.8209      4.1612
O     14.7016     10.8116     15.1616
C      8.1211     -0.2431      8.4335
C      7.2491      6.0244      9.6590
H     15.6448     -6.8117      9.1017
C      6.1906      2.7271      2.5398
H      6.5944      4.5763      7.2389
H      7.0895     -4.0578     11.1405
H      5.1444     -2.5419      8.4313
H      5.4562     -5.7089     10.4142
C     17.6531     10.7240     17.8692
C      9.6737     -4.3950      4.9549
O     14.7003     -4.1504      4.9254
C     11.2551     -5.1358      7.0344
C      8.7292      8.3040     12.0733
C     20.4892      7.8177     13.1139
C      6.4305      7.0680     -0.7381
H      4.4833      4.2563      1.9862
H     17.9757     10.8346     15.2849
H      1.9181     -0.8828      2.8947
H      8.2898     -7.5563      8.1078
C      7.3044      6.5683     10.9908
C      7.5683      5.7969      2.9618
H     21.5456      9.1373     15.3206
C     -1.1241      6.6043      5.0694
H     15.1900      8.9306     20.7457
H      4.3377      1.4075      2.1965
H      5.0575     -2.3696     10.2380
H     15.8829      7.5799     13.6824
C      9.8529     -1.1583      7.1269
C      6.1804      5.8214      8.8626
C     16.1138      7.4046     18.0176
C      4.7026      5.9644      0.3527
C     17.5760      9.6372     15.1755
H      8.8013     -4.9931      4.8546
H      8.2513      7.7567      3.2804
H      4.1138      1.2920     10.4537
H      6.4067     -0.5150      9.7978
H     17.7515     12.6036     17.1986
C      0.0504      3.6441      8.7661
C     13.6277      8.2108     12.4063
C      1.7760      1.7098      7.8185
C     12.3789     -6.4914      1.4760
H      5.5706      7.9566     -0.9361
H     -1.9779      2.3396      4.1557
H      5.5644      3.7206      4.2040
H      5.4954     -2.4829     11.9260
C     10.0758      7.6774     12.8792
O     14.3197     11.1745     12.9896
C      6.1569     -4.2001      8.0541
C     16.0636      8.5152     20.1852
C      3.3568      1.3852      9.4072
C      2.8757      1.6095      4.8937
H     13.0946     10.4039     10.4357
H     12.5096     -3.5096     -0.1044
H      6.0906     -0.2506      6.8663
C      3.7231      3.3463      3.4224
H      9.2725     -3.1152      6.8526
C     10.8588     -4.3054      0.7089
C     11.2065      7.1246     11.9746
H     11.0478     -2.4341      7.1795
C      5.2881      2.4878      5.0577
H     14.2200      9.9727     10.8499
H      4.1807     -0.0937      5.5851
H      8.6367      0.7185      8.4949
C      2.7889     -0.7281      9.3022
C      4.8952     -1.6454      7.8686
C     -2.0901      5.2139      3.6002
C     16.5151      9.6926     19.3431
C      2.2698      3.7199      2.6357
C      5.0708     -4.8769      9.8472
H      3.2253     -0.8254     10.3426
H     16.2075      9.2353     14.1342
H     -3.7086      5.2352      2.1776
H     15.1667     -8.2136     -0.7787
O      5.4392      6.7204      6.5360
C     13.3978     -4.8214      4.5617
H     16.9870     10.6394     20.0842
C     10.0275     -4.1033      3.6430
C     10.7746     -5.0464      3.0200
H      5.1318     -4.6839      7.5243
C      9.9895     -5.3900      7.6068
H     14.0901      8.4348     10.5109
H      5.4947      2.1177      1.6043
H      0.8947      3.6637      9.6581
C      3.0354      2.1538      1.0719
C     13.0823     -4.1958      2.1509
C     -0.9026      3.0251      1.6778
C     -0.0859      3.7193      4.2398
C      7.3891     -2.1080      7.1741
H      2.5078     -0.5968      4.3720
H      9.2021     -4.8259      7.2551
H     15.7692      9.4619     18.4553
H     13.0479     -7.2899     -0.5124
O     12.5390     -3.1666      6.1661
C      6.2179     -1.2345      7.3786
C     13.4709     -6.0165      6.7365
C     15.3694      8.2149     14.3765
H     15.7015      8.3968     16.1532
C     13.5907     -5.1717      3.0969
H      8.4668     -0.2913      9.4072
C      2.5390      1.1059      3.6374
C      0.3668      2.0409      7.9329
C     10.6267     -1.9710      6.2572
C     -2.2121      3.1502      4.9327
C     18.3651     11.9491     17.8006
C      2.9398      3.9304      9.8729
C      0.4097      3.0351      0.7532
C     11.7714     -5.0647      1.6177
C      4.1104     -0.7007      8.5119
N      1.8487     -0.1861      3.7764
H      3.6859      2.0848     -1.2503
C      2.8522      1.4945     -0.6431
O     16.8125      6.4976     15.5537
C      9.4599      6.5573      0.8174
H     18.7785      8.8545     18.7717
H     -0.4245      1.3224      8.2192
C     -3.0452      4.6343      2.8960
C     10.2872     -5.4353      8.9937
H      2.1109      0.9277      6.8347
H      7.7453      5.1519      0.2441
H      7.6901     -4.2607      6.5568
C     11.4286     -3.1706      0.2289
H      4.2583     -5.6493      9.2819
H     11.8015     -3.3679      3.8721
H     15.4977      9.1774     11.7926
H      2.0062      2.2860     -0.7944
H     -0.8975      3.1877      9.1150
C     14.9992      7.6217     15.6490
H      5.4433      6.7681      8.9186
C     14.5789      8.7955     11.4832
C      5.8691     -2.5049     10.9711
H      3.3795      4.0876     10.9537
H     15.8033     10.7437     17.3540
C      4.1350      8.4016      4.3237
C      7.4858      7.1605      2.6378
C     20.8143      9.7709     14.6327
C     18.5790      8.5858     14.6077
C      4.1995      6.0918      6.4768
C      1.9531      5.1652      2.6032
C      5.9296      6.1746      0.2278
C      5.3775      7.4709      4.2109
C      7.9555      6.8677      1.2361
C      4.2872      5.1234      7.5741
C     14.6389     -7.4102      1.2532
H     -2.2894      5.4403      6.4266
C      6.0925      7.0357      5.3463
H      9.7321      5.9502      0.1893
H      0.5484      1.9659      0.5142
C      7.1258      5.6480      0.9522
H     -0.0089      3.3036      3.2020
H     11.2742     -5.7842      9.0833
O      7.4031      7.0679      5.9470
H      9.1254      9.3022     11.8567
H      1.4601      3.0869      3.1878
H     12.6476     -3.2058      2.6600
H     16.4509     -8.7513      0.2991
H      4.5492      5.2927      4.4184
C     12.4251      7.4067     11.7135
C     15.6098      6.3880     15.9965
H     14.0762     -6.4594      9.1908
C     -1.5332      4.3521      4.5901
C      0.3421      6.6919      5.1943
H      4.7699     -4.4810     10.7963
H      2.9356     -0.2833      5.9557
C      1.2428      5.5114      4.9031
H      2.9700      0.1791      1.7408
H     16.6212     11.7937     16.5671
H     12.9777     -5.6547      8.4326
C      8.4827     -7.0345      9.0091
C      4.3564      0.8653      8.1964
O      6.0076      3.6976      4.9429
C      5.9672      7.7398      2.8913
C      9.5435     -3.0413      5.6656
C     12.7300     -6.6606      2.8322
C     -1.4224      6.5649      3.5667
H     16.7562      8.2205     20.8797
H      4.2428      6.5174     -0.1741
H     -2.2531      3.2031      5.9806
C      2.2395      0.7196      9.2416
C      0.6452      5.1266      3.5629
C      4.8497      3.6762      2.7484
H     14.1409     -8.1001      8.5067
H      8.6681      8.4017      9.9229
H      8.1898      4.7082      4.0972
H     10.5871     -0.4812      7.3053
H      7.5377     -2.4321      5.8940
C     14.9634     -6.1132      8.6815
C     -1.3473      5.2474      5.8657
O     13.9539     10.8523     10.9237
C      3.2389      1.1664      2.2037
C      1.6316      4.4040      5.9277
C     14.8323     -6.4818      7.2383
C     15.4115     -8.4912      0.3842
H      3.9011      2.6622      1.2275
H      2.7306      0.5784     -0.1103
H     11.3330     -1.3582      5.5876
H      6.1403      0.6305      3.5713
C     12.1018     -3.9454      4.9280
C      9.3645     -6.2960      9.7781
H      4.4161      5.3857      1.2916
H     21.5675      9.5360     13.9085
C      8.5768     -1.3138      7.6553
H     10.0604      6.7449      1.6564
H      9.0237     -2.4866      5.0852
H      6.1661      1.5464      9.2248
C     12.6196     -5.4526      7.4866
C      0.6226      3.2187      5.4713
O      7.7802      5.4182      4.3318
C     11.0600     -4.9212      5.5860
C      6.3070      1.8057      7.2493
C      5.3416      2.0182      6.3976
C      3.3573      0.7141      5.8903
H      7.2125      6.8290      6.7366
H      5.2848      3.8272      8.2268
H      8.0972     -3.6231      8.7240
H     12.9035     -4.1028      6.6036
H     19.3031     12.3903     18.5581
H      1.9302     -1.3183      9.4219
C     14.7291     -7.9311      7.4268
H     -1.5104      3.9652      2.0821
C      3.7308      5.4750      5.0761
C      3.2771      2.7814      9.0685
H     20.6156     10.7784     15.1843
C      8.5995      7.5638     10.7976
H      4.1758      5.7607      8.4618
H     10.4448      7.1341     11.0138
H      7.1000      2.2522      7.0077
C      3.7577      2.8782      4.6830
C     17.7872      9.4010     18.3942
C      6.6341     -0.3255      8.5317
C      7.6963     -3.4868      7.5725
C      5.8600      4.7159      7.9074
C      5.7991      0.9766      8.4623
H      0.0127      4.4286      8.0468
H     10.2531     -4.4758      9.4314
H      0.1511      3.3573     -0.2937
H     19.4188      9.7089     12.7447
H      7.4774      5.8861     11.7423
H     -1.0077      2.5513      6.5453
C     14.5358     10.3654     13.8132
H      2.9763      4.7871      9.3862
H      9.9631     -3.2123      3.3631
