264

C      7.0753      8.8048      1.0952
C      4.1168      1.3124      6.9736
C      2.2708      2.9511      1.2880
C      7.3276      4.8184      2.6819
H     -2.9542      3.2644      2.7584
C      7.3222      3.5036      3.1178
C      3.4346      3.8609      5.3776
C     -6.2878      9.6212     10.4817
C      3.1979      7.0569      6.7425
C      6.0428      1.7920      3.7892
C     -6.9110      8.6611      9.4494
C      0.7828      8.4552      0.7534
N     -0.0600      2.9817      6.6367
C      0.1380      5.6235      0.7072
O     -1.3149      2.4621      1.6683
C      3.4237      3.6642      6.5889
C      2.5883      6.2010      4.5971
C      3.5781     10.4882      3.6816
H      1.3260      1.5350      9.6774
H     -3.5778      3.0114      5.2435
H      4.5644      5.7788      2.7765
H     -7.0403     11.6186     11.2705
C      4.1024      8.9483      3.3157
H     -9.0746      8.3028     10.4056
H     -5.6733     10.1682      9.7627
H      7.7358      2.8519      4.0357
H     -0.6166      7.6356     -2.7251
H     -1.3383      5.0114      6.6647
C      2.9708      2.5246      7.4013
H     -2.5417      9.4416     -1.1168
H      6.7926      1.4110      4.4964
O      2.2314     10.5599      1.5763
C     -4.8470     12.9132      8.7061
C     -5.9954      6.0456      9.5657
H      2.5952     -0.1990      6.5507
H      2.6742      6.2473      9.3939
C      6.1625      2.8170      2.5668
H     -6.0455      9.0815     11.4834
H     -8.7743     10.7413      8.3501
H     -7.7122      7.0668     10.2652
C      4.5031     10.8405      4.7749
C     -2.8991      8.5869      4.9017
O      2.0040      8.5999      5.1088
C     -1.7263      7.9580      6.9152
C     -4.2787      8.1057     12.2570
C      7.5982      7.5238      0.3010
C     -6.5874      7.0354     12.2791
H      4.9985      4.4430      1.7727
H      5.1158     10.0030      1.4504
H      1.8150     -0.9103      3.0299
H     -5.1247      6.1199      7.7226
H      2.5850     11.4633      1.6558
C     -5.8103      6.8659     10.9180
C      8.0254      5.8066      3.4816
H      9.2271      9.3211      2.0024
C     -1.0826      6.7991      5.1918
H      2.7826      8.7121      7.9762
H      4.0579      0.6590      2.7163
H      2.1957      6.8140      0.4595
C     -3.1708     11.5549      7.5996
C     -7.2224      5.3847      9.1374
C      3.0714      7.4334      5.2316
C     -8.3420      5.6670     13.3188
C      5.0281      9.3217      2.2922
H     -3.9254      8.2208      4.7731
H      8.9797      7.8765      2.9423
H      3.6623      1.7562     10.4045
H     -6.3770     12.4683      9.8166
H      5.3116     12.6623      3.9032
C      0.3652      3.8549      8.8225
C      0.3956      8.1898     -0.7103
C      1.7355      1.7889      7.4833
C     -0.6866      6.3903      1.4630
H     -7.3135      7.8582     12.5622
H     -2.1011      2.2785      4.7831
H     -8.1283     10.2005     11.4241
C     -2.8185      7.4276     -0.0193
O      1.0120     10.7826     -0.3023
C     -6.8331      8.6889      7.9069
C      3.4707      8.2806      7.2834
C      3.5811      1.7041      9.3841
C      2.8243      1.3073      4.9093
H     -0.9541     10.0951     -0.2333
H     -6.9258     12.6783      6.6899
H      3.4222      3.2790     10.9700
C      3.7161      3.1460      3.0776
H     -3.6768      9.3702      6.7139
C     -2.1433      8.6268      0.8201
C     -1.8424      7.2895     -1.0885
H     -2.0851     10.0660      7.8588
C      5.0199      2.2226      4.8678
H      4.4184     -0.4255      5.6709
H     -4.4956     14.0572      8.7390
C    -10.4880     12.6671      8.7475
C     -8.1476     11.5289      8.1422
C     -2.1215      4.9658      3.4039
C      3.8066      9.3714      6.5691
C      2.4832      3.4651      2.8132
C     -8.1494      7.8361      9.7876
H      2.6379      8.2951      0.8530
H     -3.7808      4.4980      2.1006
H      1.8773      4.2311     -0.5170
O      5.5386      6.6424      6.5447
C      0.4855      8.3130      4.4815
H     -8.5643     11.9253      7.1093
C     -2.3684      8.9037      3.5176
C     -2.1218      7.7595      2.9182
H     -7.2407      8.0275      7.2487
C     -2.7038      7.4693      7.6218
H      1.3741      3.1325      5.0579
H      2.0630      8.4656     -2.4805
H      6.4329      2.4387      1.4974
H      1.0377      4.5600      9.1050
C      3.3146      1.9685      0.9373
C     -0.1190      8.7895      1.8701
C     -0.3501      3.0706      1.3583
C     -0.1578      3.8379      4.2613
C     -5.4839     10.8576      7.4432
H      2.1219     -1.0141      4.6466
H     -3.5728      7.7013      6.9315
H      3.2150     10.3126      6.5718
H     -0.0613      5.7510     -0.5154
O     -0.1885      9.9088      6.2429
C     -6.7983     11.9367      7.7371
C      0.5470      7.1164      6.7207
C      2.1906      7.5977      1.1204
H      3.0526      8.4375      2.6841
C      0.6493      7.9829      3.0266
C      2.2243      0.8060      3.6283
C      0.5772      2.6178      7.9519
C     -2.3632     10.6166      6.9687
C     -2.4775      3.2517      5.2225
C      5.2875     11.9880      4.5946
C      2.9557      3.6257      9.9043
C      0.8858      2.3963      1.0219
C     -1.3608      7.9747      1.7247
C     -9.1784     12.4613      8.6591
N      2.1228     -0.4122      3.8433
H      4.4265      1.6546     -0.7324
C      3.2630      1.2585     -0.4013
O      3.9004      6.3201      2.2964
C     -3.3669      6.4439     13.9067
H      5.9672      9.8051      5.8397
H     -0.3524      2.1775      8.2868
C     -2.8695      4.3073      2.6385
C     -2.8395      7.4545      9.0769
H      1.1625      0.8738      6.7293
H     -5.5339      4.4105     13.7305
H     -5.3581      8.8386      6.4895
C     -1.8439      9.5931     -0.1575
H     -7.9701      6.1777      8.7862
H      1.2570      7.4504      9.1375
H     -0.9043     10.2185      4.5682
H      2.5073      9.1704     -1.1072
H      2.6258      2.0846     -0.6579
H     -0.1212      4.1683      9.8575
C      2.1254      7.6897      2.6229
H     -7.6978      4.9759     10.0253
C      1.4262      8.6995     -1.3890
C     -7.4028     10.6988     10.7150
H      2.5229     10.3448      3.9458
C      4.3672      8.1084      4.6061
C      7.9750      7.2024      2.9772
C      8.2403      9.7139      1.5315
C      6.1057      8.4207      2.0931
C      4.2230      5.9242      6.3107
C      1.7253      4.9332      2.5599
C     -7.1128      6.1210     13.2993
C      5.5448      7.2433      4.2737
C     -4.9483      6.6375     14.2709
C     -8.8070      4.8174      7.3411
C      1.4417      5.2203      1.2329
H     -2.7450      5.6150      6.0694
C      6.2585      6.9395      5.4679
H     -3.2606      5.5731     13.4229
H      0.8916      1.7916      1.9078
C     -5.9304      5.3434     14.1382
H     -0.0503      2.8586      3.4891
H     -2.1526      6.5314      9.6995
O      7.4691      6.9890      5.5851
H     -3.9274      9.0744     12.1809
H      1.6492      2.8743      3.4878
H     -0.3029      9.9753      1.9448
H      3.1631      4.6054      0.6286
H      4.7185      5.5845      4.4837
C     -0.4583      7.4682     -1.4915
C      2.5620      6.2219      3.0192
C     -1.6002      4.4537      4.6527
C      0.3075      7.2057      5.3197
H     -8.7920      8.1103      8.7960
H      2.0055      1.8717      5.4704
C      1.2392      5.9998      4.8320
H      2.8830      0.2496      1.3250
H      3.8898     10.9830      2.8450
H     -0.2539      7.1171      8.5521
C     -4.9944      6.4032      8.8172
C      4.4746      0.9280      8.3237
C      6.7265      7.7060      3.2558
C     -3.0421      9.8074      5.8432
C     -0.3220      6.4141      2.9328
C     -1.7297      6.3884      3.6167
H     -8.9436      6.4019     13.0338
H     -2.2837      2.7500      6.1107
C      2.1549      1.1101      8.9381
C      0.6364      5.3623      3.5908
C      4.7910      3.3542      2.2845
H      1.9669      4.3710      7.5480
H     -2.5827     12.4754      7.8434
H     -5.3174     11.3048      6.4019
C      1.6180      6.5220      8.8652
C     -1.7043      5.5831      5.8673
C      3.1447      0.8008      2.2713
C      1.0323      5.0026      5.8935
C      1.7202      6.4677      7.4523
C      2.2517      4.2518      0.4395
H     -1.6357      5.7413      1.2594
H      4.1936      2.4095      1.4406
H     -1.8108     11.3131      6.4855
H      5.4923      0.9434      3.6053
C     -0.6335      9.2395      5.1688
C     -4.2210      7.4009      9.4366
H     -8.5120      4.7625     14.1704
H      8.9567     10.0985      0.9350
C     -4.3944     11.7004      7.8415
H     -2.7988      5.9252     14.7088
H     -3.5063     10.3473      5.0690
H      6.5144      1.9590      9.1856
C     -0.5062      7.4647      7.5504
C      0.5307      3.6156      5.4436
O      8.9248      5.4429      4.2842
C     -1.6787      8.1486      5.5647
C      6.5855      1.8451      7.0598
C      5.2423      1.8220      6.2637
C      3.4142      0.3096      5.8549
H      8.5820      5.8787      5.1254
H      6.8408      3.0869      7.1376
H     -7.4032      3.3776      7.8983
H     -4.7474      8.9749      7.7701
H      0.5957      9.3910      6.4747
H      5.7435     11.6389      5.5809
H    -11.0529     11.8938      8.1915
C      1.5656      5.0369      6.9703
H     -0.4430      4.1392      1.1896
C      3.8972      5.1698      4.9302
C      3.2590      2.9441      8.8354
H      8.1578     10.6951      2.0626
C     -4.6437      7.5844     10.8610
H     -9.2278      5.1068      8.5429
H     -2.0985      6.8392     -1.8619
H      7.3120      0.9331      6.9616
C      3.6788      2.6274      4.4416
C      4.8372      9.7690      5.6554
C     -6.2870     13.0025      8.7228
C     -5.6387      9.5433      7.5291
C     -7.4527      4.4559      7.7606
C      6.0746      1.2681      8.4604
H     -0.1033      4.5486      7.9572
H     -2.3610      8.5875      9.2723
H      0.5344      2.3576     -0.0563
H      6.5452      9.5665      0.4998
H     -0.6989      2.1086      6.3756
C      1.4849      9.9903      0.5687
H      2.8662      4.7432     10.0280
H     -2.3883      9.9817      3.1884
