266

C     19.8520      8.4604     13.6766
N     10.4886     10.6505     14.4763
C      3.6463      1.4751      7.0647
C      2.3807      2.4626      1.8821
C     -5.1823     17.7173      2.3411
H     -2.8419      6.9511      2.2648
C     -5.1444     16.2843      2.6938
C      3.4869      4.0771      5.2338
C     16.2799      7.0335     19.4982
C     -6.5926     14.6573      4.1532
C     -7.3651      8.2499      9.5779
C     13.4778      8.9341     13.9537
N      0.3826      2.6887      5.9507
C      0.3287      5.7493      0.2785
O     -1.2696      2.5653      1.5291
C      3.4429      4.0326      6.6707
H     13.3656      6.8369     12.4448
C     15.7844      6.1917     17.2468
C     16.8359     10.2404     16.7898
H    -11.8773     15.0772      9.6592
H     -2.4799      2.6217      5.1224
H     17.2427      7.0828     15.0503
C     17.3404      9.0478     16.1224
H     -8.7014      6.6017     10.5969
H     -7.8738      8.9944     10.1387
H     -1.0305      5.3617      6.8152
H     -7.0599     14.8406      9.0809
C      2.8770      2.8165      7.3380
H     -5.6893     14.6365      4.7839
O     14.3785     10.5938     15.3968
C     -5.1045     12.9309      7.9645
C      6.2756      6.1240      9.6585
H      3.3323     -0.5555      5.6788
H      4.0477      4.6917      8.2881
C     -6.4375     15.7208      3.1425
H      5.6942      3.2872      7.6750
H     -8.3559     10.4455      9.3503
H      2.9826      6.8398      9.1284
C     17.5459     11.0594     17.8524
C     -2.8152      8.8004      4.8894
O      2.2173      8.5489      4.8412
C     -1.3753      8.5411      6.9466
C      8.8108      7.9014     11.7443
C     20.7389      7.3547     12.7786
C     -6.2278     19.6018     -0.8640
H     -7.3741     16.9847      1.5023
H     17.2879      9.6665     14.0429
H      1.6458     -0.9475      5.4326
H     -5.0695      5.6648      8.7703
H     15.2844      9.8224     12.5798
C      7.7811      2.5256      8.9518
H      1.0060      1.1413      1.9917
C      7.2703      6.3809     10.5995
C     -4.6057     18.5995      3.2844
H     -4.4374     20.7282      2.1164
C     -0.9275      6.8548      4.9818
H     15.2807      8.7091     20.4306
H      3.7517     -0.6275      3.4017
H     14.3896      6.9928     13.6795
C     -3.1775     11.6018      7.3114
C      6.5616      4.9382      8.7605
C     16.1662      7.5975     17.9945
C     -7.8595     18.1626     -0.2175
C     17.7444      9.0914     14.7523
H     -3.2127      7.7843      5.1499
H     -4.8810     20.7534      3.5985
H     -9.5254     14.6200     10.5501
H     18.5309     12.4346     16.4058
C     -0.5560      3.2463      8.3672
H     21.4548      9.4367     13.8410
C     12.7386      8.9176     12.7615
C      1.7358      2.1512      7.8470
H     10.9411      7.5703     10.6687
C     -0.5727      6.5313      1.4641
H     -7.0239     20.3808     -0.8863
H     19.2096      9.0820     12.7670
C     10.3070      7.7041     12.5679
O     15.1266     10.5110     13.3240
C     -6.6513      8.3561      8.5142
C     16.3088      8.5402     20.1281
C     -9.5882     14.5977      9.4675
C      2.3364      0.9724      5.2698
H     11.1378     10.1842     15.2873
H     -6.8687     12.0012      6.7176
H    -10.9541     16.7930     10.4092
C      3.9474      3.4698      2.8299
H     -2.8848      7.5499      6.6444
C     10.9945      8.7346     13.4690
C     11.3486      7.2352     11.5832
H     -2.1640     10.4655      5.6522
C     -7.7216     15.1966      5.0406
H     17.3400     13.3929     17.5553
C    -10.6288     12.7290      8.8342
C     -8.3584     11.3180      8.4274
C     -1.9578      5.0623      3.7268
C     16.4312      9.7083     19.1133
C      2.6681      3.7384      2.1521
C     -7.9959      6.7588      9.6839
H     15.2766      8.4822     13.4006
H     -3.5493     17.4616      4.6352
H      0.8612      3.4850      0.1496
O     -7.1996     19.7865      6.4402
C      0.8592      8.3475      4.4722
H     -8.5682     10.8241      7.3642
C     -2.7994      8.8654      3.3186
C     -2.2132      7.4992      2.9386
H     -6.3397      7.4836      8.0970
H     -4.5233     16.2716      3.9217
C     -2.6041      8.2399      7.5195
H      2.1916      3.9335      5.1721
H     12.2165     10.3350     11.5870
H     -9.4325     17.1207      0.5505
H      0.1008      3.2566      9.1489
C      3.2543      1.1377      2.0066
C     -0.1219      8.6747      2.1873
O     -8.5458     16.9827      0.0973
O      7.6318      4.1930     10.7501
C     -0.0972      3.0471      1.7337
C      0.4571      3.9336      3.8584
C     -5.6852     10.7648      7.3409
H     -2.9433      9.4018      7.4512
H     15.5219     10.1887     18.8546
H     -0.5177     10.1680      4.4680
H     13.1484      7.7336     10.5870
O      0.7261      9.8740      6.0844
C     -6.9226     11.7197      7.8709
C      0.7480      7.2025      6.6082
C     14.6673      8.0696     14.0893
H     15.5830      8.8058     15.5970
C      0.5864      7.7233      3.0620
H     -4.4235     13.2650      8.7000
C      1.9608      0.3041      4.0715
C      0.1869      2.4045      7.3604
C     -2.9424     10.6714      6.2709
C     -2.3382      3.4347      5.7287
C     18.0284     12.4025     17.4805
C    -10.0581     16.9938      9.6103
C      1.0377      2.0689      1.3766
C     -1.3229      7.8964      1.8108
C     -9.2102     12.4986      8.6323
N      1.5865     -0.9311      4.5162
C      3.1601      0.8794      0.5917
O     16.8989      6.2421     15.0486
C     -3.1954     19.3652      0.3194
H     18.4259      9.5627     19.5219
H     -0.3580      1.1713      7.3184
C     -2.4641      4.4995      2.6569
C     -2.5478      7.5512      8.8005
H      8.4516      1.7908      8.3823
H      1.5057      1.1359      7.3095
H      6.7559      3.9587     11.1134
H     -4.7760      8.7513      8.3200
C     10.4613      9.9451     13.4418
H     -8.7038      6.1678      9.1101
H      1.3456      7.6364      8.9404
H     -0.4693      9.6235      2.5047
H     13.8343     10.8300     12.0618
H      4.1224      0.3530     -0.0567
H     -1.5363      2.7281      8.5010
C     14.9538      7.7200     15.5783
H      2.7845     -0.3454      0.2352
C     13.1683     10.1100     11.8082
H      1.7515     -2.0087      4.0877
C     -8.4036     20.8106      4.0254
C     -4.8696     20.0294      2.9068
C     20.5069      9.6461     14.1920
C     18.8954      8.0096     14.5297
C     -8.4159     19.0891      6.7517
C      1.8636      5.0023      2.2240
C     -6.5933     18.5659      0.1838
C     -7.2309     20.1265      4.0231
C     -4.5632     19.3767      0.6354
C      4.5285      4.9261      7.4026
C      1.4378      5.2139      0.5220
H     -2.7177      5.7025      6.7135
C     -6.4572     19.7579      5.2306
H      1.1556      1.8662      5.7891
H     -2.9323      5.3055      1.9673
H      1.2294      2.4140      0.2881
C     -5.7070     18.4610      1.2269
H     -0.1615      3.4354      3.0084
O     -5.2947     20.0201      5.4848
H      8.1378      8.9978     11.7102
H     19.8024     10.1680     13.5153
H      1.1722      3.0312      3.6633
H      9.8777     11.4548     14.2527
H      1.4671      3.7816     -1.3538
H      5.0314      5.0675      4.1329
C     12.7327      7.6687     11.6302
C     15.7452      6.1887     15.7511
H      1.3722      5.9911      8.5992
C     -2.1028      4.6855      5.1134
C      0.5785      7.1134      5.2008
H     17.0732      8.6387     21.0210
C      1.2571      5.8947      4.7890
H    -11.4964     12.0213      8.9361
H      2.5244     -0.9543      2.0681
H     16.4001     11.0575     16.0774
H      0.3161      8.0618      8.2823
C     -4.0969      5.9745      8.2542
C     -8.7408     13.8741      8.3482
C     -6.4633     20.2901      2.7338
C     -3.8101      9.8246      5.7018
C     -0.0354      6.4688      2.7691
C     -1.2457      6.4121      3.7119
H      2.8484      3.4094     -0.2093
H     -7.8408     18.3885     -1.5272
H     -1.8193      2.9816      6.5270
C    -10.9616     14.2408      9.1311
H     -1.2479      9.7512      7.1854
C      0.8678      5.1584      3.4315
C     -7.6110     16.1121      2.5373
H      1.2571      4.5968      7.8610
H     -5.6969      8.7925      6.7042
C      7.6160      3.9437      9.4505
H     -2.5944     12.4343      7.7557
H     -5.2801     10.4437      6.3211
C      2.0068      6.8588      8.5761
C     -1.8564      5.7384      5.9646
C      2.8115     -0.0518      2.7482
C      1.0438      4.9808      5.8879
C      1.9677      6.5233      7.1714
C      1.7384      3.9319     -0.2975
H     -1.0904      5.7011      1.0223
H      4.3657      1.0810      2.4019
H     -2.7235      8.0496      9.5753
H      2.7835      1.6971     -0.0354
H     -4.4345      6.4637      7.4171
H     -6.9967     13.6757      3.5155
C     -0.1426      9.3944      5.0588
C     -3.7727      7.0402      9.1163
H     -8.3814     18.8366      0.4430
H     -3.6839      9.3787      3.0488
C     -4.5508     11.6905      7.6176
H     -3.4057      3.9925      2.6036
H     -4.5271      9.1473      6.3382
C     -0.1526      7.7552      7.3096
C      0.2777      4.0158      5.4790
O     -4.3731     18.1271      4.6330
C     -1.3076      8.5227      5.4476
C     -6.8478     14.5525      7.1316
C     -7.9390     14.6049      6.3800
C      2.8947      0.4096      6.2487
H     -8.3772     15.8678      8.7376
H      1.5273     10.4028      5.6909
H     18.6173     12.5910     18.3694
C      2.0911      4.9167      6.9981
H     -0.3194      4.2097      1.5214
C      4.1490      5.4069      4.7631
C     -9.4495     16.0185      8.8819
H     20.6240     10.3303     15.1386
H     -0.5362      4.9477     -0.2698
C      8.4936      7.1940     10.4790
H     -9.5045     17.6437     10.4636
H     11.1163      6.1829     11.5512
C      4.1172      2.9262      4.4176
C     17.6405     10.2111     19.0272
C     -6.3738     12.8474      8.8247
C     -5.6721      9.2641      7.9014
C      5.8723      4.3321      7.7661
C     -7.2478     14.0165      8.4980
H      9.6162     10.2126     12.6567
H     -2.7704     18.3978      0.5212
C     14.3125     10.0730     14.2859
H    -10.7145     17.8454      9.1578
H     -1.9009      9.7061      3.3257
