266

C     19.7912      8.6835     13.5236
N     -3.1906     10.0549      1.7614
C      4.3216      1.6051      7.3585
C      2.2692      2.5654      2.2167
C      7.7755      4.7910      2.0641
H     -2.9169      6.4962      2.4392
C      7.7899      3.4508      2.6092
C      3.4729      3.9834      5.1344
C     16.1650      7.0100     19.5746
C      6.3979      1.9724      4.2096
C     -7.1485      8.3651      9.0711
C     13.5744      8.8889     13.7723
N      0.7537      2.4496      6.1372
C      0.7674      6.2590      0.5402
O     -1.6231      1.9765      1.1415
C      3.0114      3.9350      6.8347
H     13.4341      7.3512     10.8085
C     15.6638      6.2815     17.3102
C     16.4070     10.5035     16.0954
H    -11.3393     14.5193      9.9853
H     -2.3257      2.6615      4.7040
H     17.5152      5.5110     15.6527
C     16.7149      8.9673     15.9842
H     -8.1940      7.5177     10.3668
H     -7.8424      9.1247      9.2727
H     -6.7237     14.8796      9.1488
C      3.2499      2.7159      7.6576
H      7.4302      1.6889      4.6711
O     14.4433     10.8099     15.1844
C     -4.4498     12.3864      8.7800
C      6.1546      6.0632      9.9656
H      3.2229     -0.2490      6.6152
H      3.7638      5.4554      8.2525
C      6.5801      2.9029      3.1305
H      6.1598      3.6516      7.5093
H     -4.2487     12.1964      9.8355
H     -9.0732     12.2668      9.7660
H      2.8158      6.2702      9.2601
C     17.1299     10.8637     17.2710
C     -3.1324      8.3833      4.9829
O      1.8899      8.5836      5.0218
C     -1.7577      8.1373      7.0803
C      8.7242      7.8903     11.9703
C     20.5303      7.5496     12.8479
C      6.4299      6.9387     -0.7272
H      5.7683      3.8564      1.5464
H     17.2901      9.2775     13.8459
H      2.4173     -0.9301      5.6272
H     -5.7778      6.6172      8.9649
C      7.9376      2.8616      8.9372
H      1.1464      1.2694      1.1482
C      6.9976      6.5414     10.9127
C      8.0809      5.6437      3.1052
H      8.0456      7.4048      1.9777
C     -1.1375      6.6234      5.1595
H     16.7060      8.5944     21.4448
H     16.7951     11.1598     15.3360
H      2.5395      5.5268      0.5756
C     -3.0305     11.6710      7.1578
C      6.2097      4.9804      9.1456
C     15.8426      7.5066     18.0689
C      4.5164      5.2194     -0.0947
C     17.5049      8.8049     14.8263
H     -3.8310      7.8485      5.2944
H      7.7663      7.5076      4.2346
H     -9.1237     14.2848     10.4786
H     18.7632     12.2332     17.8802
C     -0.2120      3.4599      8.3985
H     19.1217      9.8435     14.6760
C     12.8054      8.8307     12.5207
C      1.9338      2.0892      8.0874
H     10.8858      5.9646     10.7278
C     -0.4101      6.4035      1.6634
H      5.2091      7.0483     -0.6423
H     19.5048      9.2117     12.6741
C     10.2428      7.0357     12.7363
O     15.3302     10.8485     13.3416
C     -5.7598      8.5756      8.5491
C     16.7843      8.4281     20.4120
C     -9.0836     14.4929      9.5246
C      2.7477      1.2082      5.0448
H     -2.1081     10.2061      2.2631
H     -7.1954     12.6889      7.0833
H    -10.8622     17.0552      9.4120
C      4.3129      3.4096      3.1046
H     -3.7255      8.5420      7.3502
C     -2.1456      8.0992      0.5748
C     11.2319      6.5266     11.6522
H     -1.6446     11.5797      5.4326
C      5.4075      2.1805      5.1181
H     17.5872     13.0553     17.0490
C    -10.5277     12.4630      8.8027
C     -8.0929     11.2382      8.5919
C     -2.0708      4.8054      3.8878
C     16.3600      9.6601     19.5179
C      2.8413      3.6746      2.5447
C     -7.8444      6.9256      9.6324
H    -10.9342     12.0167      9.7048
H     14.9844      7.6939     12.9190
H      8.5355      6.1071      4.7374
H      0.0017      4.5654     -0.5199
O      5.4717      6.7935      6.3862
C      0.5813      8.2039      4.4055
H     16.7487     10.3619     20.3122
C     -3.1311      8.3392      3.4441
C     -2.3728      7.3343      2.7467
H     -5.1858      9.2358      9.3332
H      8.4675      3.4175      3.3910
C     -2.7165      8.8507      7.9513
H      2.3799      3.9310      4.7390
H     13.1079     10.2191     10.8019
H      3.5155      4.0864      1.1572
H      0.2722      2.8790      9.2902
C      3.2651      1.4112      2.1080
C     -0.1166      8.5980      2.1585
O      3.9700      4.0312      0.3817
O      8.0210      4.0717     10.7863
C     -0.6596      2.4914      1.7868
C      0.4041      3.5100      3.8918
C     -5.6101     10.8461      7.2291
H     -2.6097     10.0952      7.8710
H     15.3109      9.7587     19.1780
H     -0.7641      9.6808      4.2071
H     12.2322      8.2131     10.8740
O      0.1015      9.9508      6.1947
C     -6.6592     11.5656      8.1196
C      0.5193      7.0662      6.9101
C     14.4232      7.5222     13.8140
H     15.8671      8.1094     15.5610
C      0.7313      7.6970      3.0087
H     -4.4376     13.3118      8.3365
C      2.2791      0.0863      4.0507
C      0.7867      2.5656      7.4997
C     -2.3611     10.9991      6.1017
C     -2.2543      3.1793      5.6381
C     17.7655     12.1254     17.5777
C    -10.0444     16.7620      9.9427
C      0.9232      2.4276      1.4999
C     -1.1513      7.6675      1.6550
C     -8.9439     12.3063      8.7218
N      1.7456     -1.0382      4.7307
C      3.8086      1.4480      0.7007
O     16.8840      6.0726     15.1912
C      9.2939      5.9857      0.2606
H     18.0947     10.1604     19.2370
C     -2.6294      4.0538      2.8957
C     -2.9393      8.2757      9.3474
H      7.7465      2.6158      7.7578
H      1.9529      1.2552      6.7429
H      8.8781      3.0655     10.9309
H     -4.4507      9.1073      7.0784
C     -3.1127      8.9915      0.9360
H      1.5430      7.5220      9.3167
H     -0.8293      9.5717      2.4587
H     14.5043      9.7404     11.5484
H      3.3290      1.6168     -0.3723
H     -1.1540      3.0056      8.2265
C     14.9253      7.4057     15.2714
H      4.4912      2.2989      0.4143
C     13.4213     10.0015     11.8600
H      1.7495     -1.8458      4.1539
C      4.1898      8.0599      4.2925
C      7.5916      7.0673      3.2254
C     20.2648      9.6155     14.4929
C     18.5293      7.9853     14.5164
C      4.2612      6.0709      6.2861
C      1.8895      4.8893      2.5766
C      6.0518      5.8432      0.3435
C      5.3785      7.3086      4.1339
C      8.2201      6.5700      0.8348
H     13.3933     10.7094     12.7025
C      4.2212      4.9885      7.2603
C      1.5587      5.1188      0.8921
C      6.1920      7.0104      5.2518
H      1.8313      1.9983      4.6388
H     -2.1143      4.1273      1.9136
H      0.9985      3.1513      0.6462
C      7.0985      5.4956      1.0331
H     -0.5580      3.6743      3.9840
O      7.5184      7.4828      5.3834
H      8.3957      8.9225     11.3228
H     20.7457      9.2942     15.3717
H      1.1582      2.8758      3.5702
H      2.1270      4.9493     -0.9287
H      8.4704      2.0565      9.3847
H      4.9888      5.5703      4.4514
C     12.7197      7.4846     11.5036
H      6.3208      5.0609      6.9472
C     15.6041      6.1830     15.7164
H     -0.5255      7.6548      8.8070
C     -2.2343      4.5828      5.2646
C      0.3384      6.8189      5.1801
H     17.7582      8.7408     20.1229
H      3.6953      1.8460      4.6147
C      1.3919      5.7491      4.7285
H    -11.2246     12.1746      8.0358
H      2.2985     -0.3870      1.8775
C     -5.0565      7.2625      8.5183
C     -8.3818     13.6710      8.4749
C      6.2121      7.3854      2.9216
C     -3.1986     10.1054      5.1209
C     -0.0082      6.1482      2.9887
C     -1.4605      6.3105      3.6956
H      1.7036      3.4712     -0.5882
H      4.5199      5.2423     -1.2260
H     -1.4050      3.0081      6.2439
C    -10.5616     14.2146      9.1916
H     -1.4676     10.3647      6.5927
C      0.8389      5.1009      3.5856
C      5.4843      3.4653      2.3761
H     -0.5714      4.5319      8.2477
H     -6.2429      9.0158      6.0647
C      7.4783      3.9963      9.5349
H     -2.4097     12.3785      7.8101
H     -5.6070     11.2129      6.2038
C      1.7900      6.4963      8.9791
C     -1.7332      5.7543      6.0869
C      2.6984      0.0982      2.7177
C      1.3817      4.7638      5.8141
C      1.6967      6.3535      7.5881
C      1.2150      4.4118     -0.4792
H     -1.1178      5.5901      1.4526
H      3.9706      1.8009      2.9267
H     -2.1241      8.5955     10.1131
H      4.1159      0.4377      0.6560
H     -4.9143      7.3740      7.4590
H      6.2178      0.9100      3.8795
C     -0.4070      9.0639      4.9741
C     -3.9300      7.3588      9.5996
H      3.6446      5.9840      0.1614
H     -4.1519      8.2357      3.0563
C     -4.2280     11.3716      7.7194
H     -2.9625      3.0772      3.2401
H     -4.1541     10.4007      4.5745
C     -0.4495      7.6801      7.6321
C      0.5369      3.6842      5.4600
O      8.3244      5.2503      4.2461
C     -1.6144      7.9693      5.5786
C     -6.5337     13.7499      6.9790
C      5.4700      1.7983      6.4376
C      2.9807      0.8023      6.3601
H     -5.5104     13.9483      6.5703
H     -8.1455     16.2316      8.8444
H      1.0002      9.9147      5.8858
H     17.3923     12.5290     18.5742
C      1.7720      4.8505      7.0359
H     -0.9442      3.3875      2.4321
C      3.8727      5.4633      4.9682
C     -9.2565     15.9324      9.0369
H     20.8477     10.2160     13.8414
H      0.2818      6.4931     -0.5057
C      8.3425      6.8706     10.9020
H     -9.9515     16.0286     10.8794
H     11.7318      5.6665     12.3377
C      4.4640      3.0660      4.6367
C     17.4317      9.7149     18.5271
C     -5.8913     12.3797      8.9220
C     -5.6795      9.3708      7.0708
C      5.7662      4.8054      7.7711
C     -6.7450     13.7712      8.4797
H     -0.4394      4.4390      5.5654
H     -3.9508      8.8551      0.4114
H      9.5103      5.0879      0.5351
C     14.4924     10.1322     14.0738
H     -9.3633     17.5689     10.0163
H     -2.4600      9.2096      3.2253
