262

C     19.6068      8.4774     13.2352
N     -2.8135     10.4590      1.7189
C      3.8223      1.7224      7.0934
C      2.3828      2.4837      1.8795
C      7.4954      4.7908      1.7801
H     -2.7488      6.2069      2.8097
C      7.4632      3.4812      2.3037
C      3.4337      4.0517      5.4446
C     16.3525      7.3109     19.5222
C      6.4279      1.9481      4.1274
C     -6.7707      8.2315      8.7594
C     13.7312      8.6818     13.7173
N      0.2233      2.9018      6.2350
C      0.8403      6.3251      0.7710
O     -1.3696      2.9362      2.0694
C      3.0312      4.0092      6.8943
H     13.4881      6.9498     11.2679
C     15.6732      6.3352     17.3213
C     17.1158     10.1570     16.0877
H     -1.7255      2.4583      6.5009
H     17.4706      6.6728     14.2651
C     17.0654      8.7432     15.9765
H     -7.8583      7.5038     10.3444
H    -11.0946     16.4306      9.4161
H     -1.4741      6.6164      7.4110
H     -7.1673     14.0556      9.4515
C      3.1382      2.9106      7.7504
H      7.4806      2.2790      4.4943
O     14.1285     10.4073     15.3448
C     -5.4058     11.8041      9.5929
C      6.6579      6.1114      9.4045
H      2.4936      0.1145      6.6562
H      4.1946      5.4378      8.4696
C      6.5429      2.7873      2.9823
H      5.6465      3.2318      7.5807
H     -9.6595     11.7236      9.6892
H      2.2266      8.1175      8.9904
C     17.0607     10.6856     17.4810
C     -2.6941      8.7512      5.1663
O      2.2561      8.7562      4.8949
C     -0.9996      8.5326      7.0343
C      8.8882      8.0855     11.7769
C     20.5725      7.5983     12.5111
C      6.3489      6.8248     -1.1728
H      5.2169      3.5516      1.5158
H     17.7536      9.8286     14.3982
H      2.0465     -0.7356      5.4354
H     -5.1615      6.6439      8.4567
C      7.9681      3.2038      8.6225
H      1.5304      1.1618      2.1337
C      7.2353      6.7347     10.5447
C      7.9813      5.6915      2.8430
H      8.4063      7.5075      1.7495
C     -0.9124      6.7993      5.3161
H     16.5354      8.6860     21.0710
H     16.8255     10.7823     15.2805
H      2.5081      5.8779      0.7596
C     -3.6259     11.3544      7.6288
C      6.0478      4.6970      9.3187
C     16.2805      7.6872     17.9325
C      4.8248      5.2431     -0.3490
C     17.7916      8.6787     14.7487
H     -3.4825      8.4886      5.9055
H      8.1287      7.9405      3.7343
H     -7.5982     10.1247      9.4054
H     -1.9384      2.1119      2.3012
C     -0.7461      3.4233      8.2697
H     19.9297     10.6341     12.8378
C     13.1934      8.8245     12.3839
C      1.6668      2.1359      8.1887
H     11.0996      6.4868     11.0266
C     -0.5605      6.5189      1.6576
H      5.3808      7.3196     -0.8537
H     -2.5465      2.8823      5.2165
H     18.7677      8.7863     12.4664
C     10.0818      7.3323     12.6200
O     15.8208     10.2205     13.7075
C     -5.7452      8.3894      7.6340
C     16.9998      8.3994     20.2423
C     -9.6376     14.2328      9.5576
C      2.6416      1.1079      4.6692
H     -3.1322     11.2718      0.9934
H     -6.2028     12.7744      6.8161
H      3.0792      6.9701      9.2763
C      4.0056      3.3019      3.3393
C     -2.3130      8.2330      0.7463
C     11.4044      6.7813     12.0187
C      5.3525      2.1666      5.2430
H     17.0351     12.8163     17.7634
C    -11.3815     12.7513      8.4191
C     -8.7543     11.3159      7.7999
C     -1.9957      5.0172      4.3199
C     17.0088      9.7597     19.5400
C      2.8552      3.5579      2.6115
C     -7.4288      7.1105      9.1315
H    -11.7432     12.2279      9.5123
H     15.3621      7.6738     13.3442
H      7.9912      5.3892      4.7880
H      1.7705      2.7804      0.0547
O      5.6249      6.7847      6.2309
C      0.7847      8.2658      4.3092
C     -2.8317      8.4243      3.7102
C     -2.3570      7.1645      3.1377
H      8.6647      3.3184      2.6910
C     -2.3482      8.7897      7.6371
H      2.3614      3.7637      4.6517
H      3.6821      4.0201      1.1761
H      0.0815      4.1264      8.6663
C      3.3646      1.2540      1.9791
C     -0.1956      8.5465      2.0316
O      4.0580      4.2040      0.2902
O      7.2988      3.5444     11.0404
C     -0.0542      3.0214      1.8304
C      0.3021      3.9209      4.0675
C     -6.4356     10.7204      7.6034
H     15.8265     10.1170     19.4959
H     -0.7653     10.0446      4.5273
H     12.4374      7.8578     10.2613
C     -7.3926     10.8728      8.6052
C      1.1010      7.4130      6.6462
C     14.5032      7.5330     13.8344
H     16.1185      7.7166     15.8617
C      0.7936      7.6418      2.9691
H     -4.9332     12.8386      9.6990
C      2.1527     -0.0870      3.8061
C      0.4899      2.6382      7.4754
C     -2.9107     10.8996      6.5015
C     -2.4270      3.3986      6.1462
C     17.5775     11.9810     17.2358
C    -10.1249     16.8136      9.8047
C      1.0177      2.0782      1.8436
C     -1.5012      7.7815      1.9646
C     -9.7352     12.1766      8.6283
N      2.1464     -1.3089      4.5026
C      3.5903      1.2505      0.4007
O     17.1127      6.0981     15.1000
C      9.4763      6.1352      0.6379
H     18.8368      9.5397     18.5764
C     -2.8269      4.7146      3.4147
C     -2.6143      8.5593      9.0404
H      7.5437      3.5847      7.6224
H      1.7500      1.7424      6.5671
H      8.4520      3.0072     10.7486
H     -5.0997      9.7222      6.2746
C     -2.8988      9.5291      0.9158
H     -8.3699      6.8120      8.9692
H      1.1716      6.5377      9.0957
H     -0.4627      9.5666      2.7812
H     14.0580      9.9360     10.5736
H      4.0362      0.2187      0.1413
H     -1.0857      2.8481      9.0286
C     15.2249      7.4950     15.3229
H      2.8781      1.4283     -0.5076
C     13.9719      9.8155     11.6747
H      7.9345      5.9465     10.8391
H      1.3405     -1.9426      4.4222
C      4.4518      8.1189      4.2541
C      7.8494      7.1355      2.9520
C     20.1868      9.8301     13.7380
C     18.9160      7.9676     14.5055
C      4.2021      6.0870      6.2181
C      2.0761      4.9496      2.3725
C      6.1443      5.4092     -0.3193
C      5.7026      7.1696      3.9606
C      8.1128      6.3709      0.4426
H     14.7211     10.2648     12.2546
C      4.2872      4.8299      7.2875
C      1.7734      5.0888      0.8906
H     -2.9759      9.6489      7.1520
C      6.3823      6.8759      5.1078
H      2.1578      2.3064      4.2700
H     -2.5277      4.6620      2.4622
C      7.1863      5.4089      0.5425
H     -0.8498      3.6327      4.1336
O      7.6536      7.2820      5.3412
H      8.6305      8.9592     12.3184
H     19.7817     10.3436     14.6998
H      0.5459      3.1800      3.2254
H      0.6249      3.7978     -0.2592
H      4.6414      5.3281      4.2112
C     12.6608      7.8353     11.3758
H      6.4783      4.7273      7.3754
C     15.7442      6.2622     15.6888
C     -1.9845      4.7834      5.8469
C      0.5704      7.1087      5.2866
H     -7.4949      9.0085      8.6976
H      3.6037      0.8671      3.9854
C      1.3462      5.9075      4.7561
H    -11.4248     12.9391      7.4828
H      1.7494     -0.4700      1.7009
H     14.4084      9.8402     16.1282
H     -1.6942      8.1568      9.5040
C     -4.6545      7.5218      8.0578
C     -8.8829     13.4216      8.3455
C      6.4309      7.4257      2.8296
C     -3.1164     10.1206      5.2076
C     -0.0129      6.3656      3.0343
C     -1.4312      6.4798      4.0455
H     -2.8299     11.8160      7.9549
H      2.1485      4.0305     -1.0676
H      4.2999      4.9431     -1.4396
H     -3.1965      3.5368      6.9222
C    -11.1223     14.1657      9.0695
H     -1.9152     11.5542      6.7526
C      0.8261      5.2617      3.4646
C      5.1039      3.0478      2.5256
H      1.4897      4.3963      7.7466
H     18.0194      8.1160     20.3402
C      7.1548      3.7539      9.7117
H     -6.7231     11.3956      6.6425
C      2.1549      7.0682      8.7731
C     -1.2194      5.8754      6.3789
C      2.5418     -0.0355      2.4059
C      1.1326      5.1075      5.9791
C      2.1997      6.6704      7.3574
C      1.6894      3.9124     -0.1491
H     -0.9643      5.7566      1.0491
H      4.3132      1.0723      2.7139
H     -2.5106      9.5624      9.7154
H      4.3839      2.0847      0.4971
H     -4.0500      7.7483      7.1498
H      9.0920      3.1985      9.2533
H     -2.3775     10.3532      4.3175
H      6.5484      0.8862      4.1747
C     -0.2345      9.0956      4.7440
C     -3.9846      7.9453      9.3145
H     -3.9363      8.7066      3.6332
C     -4.9826     11.1854      8.3987
H     -3.1816      3.6472      3.4969
H     -4.3386     10.3031      4.8675
C      0.0944      7.8410      7.5280
C      0.8437      3.7745      5.3584
O      7.9085      4.9089      3.9422
C     -1.1556      8.3904      5.5682
C     -6.8217     13.7841      7.2377
C      5.2636      1.7837      6.4330
C      2.5684      0.9879      6.2394
H     -8.0623     15.7957      9.5141
H     -4.9996     11.7483     10.6480
H     18.7298     12.1169     17.2657
H      0.4101      7.9012      8.5666
C      2.0099      5.2001      7.1311
H     -0.4363      4.2324      1.3318
C      3.8446      5.4554      4.8443
C     -9.2043     15.7937      9.1293
H     21.1341     10.2021     14.4039
H      0.6013      6.0787     -0.3255
C      8.5274      7.8779     10.4445
H    -10.2824     16.0866     10.6131
H     11.4815      5.9247     12.6673
C      4.1648      3.0498      4.8445
C     17.8137      9.8368     18.4547
C     -7.1288     12.0950      9.4007
C     -5.9765      9.5158      6.8376
C      5.6263      4.2824      7.7444
C     -7.3287     13.3012      8.6196
H     -0.9139      4.1638      7.4958
H     -7.6522     12.0637     10.3105
H      9.5976      5.0619      0.4743
C     14.6701      9.8655     14.1729
H     -9.4602     17.7452     10.0245
H     -2.2494      9.2444      3.3804
