270

C     19.9109      9.2090     13.8802
C      3.8199      1.6279      7.0349
C      2.0665      2.8397      1.3614
C      7.0825      5.0085      2.3817
H     -3.0849      3.4858      2.3000
C      7.1772      3.4816      2.5489
C      3.3227      4.0399      5.4921
C      6.8445      9.7462     10.2611
C     15.9996      7.3632     19.4926
C      5.9782      1.8507      3.8428
C      6.3821      8.4428      9.6679
C     13.7479      8.6907     13.6768
N     -0.5397      2.8889      6.7269
C     13.4659     -6.9201      0.5289
O     -1.2577      2.0794      2.1395
C      3.2135      4.0265      7.0735
C     15.7019      6.4039     17.4365
C     16.5452     10.7246     16.6789
H      1.1933      1.2046      9.5739
H     -3.2884      3.4779      5.8530
H     17.7939      6.8675     15.9810
H      6.5352     12.0427     10.3367
C     16.6873      9.3309     16.3058
H      7.2832     10.0931      9.2304
H      8.0476      3.2004      3.3818
H     12.5932      7.8080     10.1850
H     -1.8809      5.1389      6.6013
C      3.0289      2.6961      7.6045
H      9.9223     -2.5801      0.1790
O     14.5530     10.1723     15.3101
C      8.2325     -0.3900      8.6956
C      6.7215      6.1412      9.5749
H     16.4517     -6.0888      8.8289
C      6.0801      2.5053      2.4966
H      6.0605      5.9664      7.0631
H      7.4101      9.4091     11.0282
H      5.2596     -2.7577      8.4078
H      4.6549      7.1678      9.5645
C     17.6786     10.8974     17.6647
C     10.1368     -4.2675      4.9510
O     14.7199     -4.4438      4.8679
C     11.1933     -5.0959      6.9060
C      8.8060      8.1422     12.1399
C     20.5050      7.9240     13.0121
C      6.3930      7.3960     -0.6285
H      5.4022      4.0153      1.4536
H     17.6727      9.8190     14.1949
H      1.3402     -0.6145      3.2613
H      7.4853     -6.9264      7.8115
H     16.0795     11.5453     13.4421
C      6.9332      7.1030     10.6271
C      7.7892      5.6718      3.3331
H     21.6505      8.8417     15.0634
C     -1.2541      6.6109      5.0521
H     15.3328      8.8002     20.5889
H      3.9875      0.8167      2.3177
H      4.9487     10.9500      9.7413
H     15.0325      6.7919     13.6101
C      9.8148     -0.9517      7.0404
C      5.8859      5.1085      9.2531
C     15.7508      7.6398     18.0824
C      4.6914      6.5394      0.8305
C     17.8423      9.4177     15.0410
H      9.4603     -5.0357      4.8570
H      8.7381      7.3589      3.2399
H      3.2329      1.0834     10.5034
H      5.9812     -0.2022      9.4582
H     17.5643     12.6119     16.9150
C      0.0822      3.8276      8.9357
C     13.4172      8.2672     12.2167
C      1.6018      1.8992      7.5983
C     12.2306     -6.5219      1.4790
H      5.4198      7.8867     -0.9659
H     -2.9334      2.1710      4.0961
H      6.1321      4.3309      4.1855
H      5.5066     11.1348     11.5241
C      9.9177      7.7410     12.7876
O     15.0114     10.8338     13.3743
C      6.7495     -4.5271      7.9703
C     16.2089      8.6423     20.1422
C      3.1709      1.4210      9.5098
C      3.2633      1.6872      4.6662
H     17.5437     12.2765     14.1479
H     11.0188     -2.6499      1.8845
H      5.8616     -0.5912      6.6356
C      3.7532      3.4199      3.0623
H      9.2559     -3.4900      6.6724
C     10.9535     -4.2314      0.4339
C     11.1391      7.1636     11.6167
H     10.7887     -2.6272      7.9676
C      5.3949      2.7422      5.1569
H     18.7796     12.8248     18.2684
H      8.4458      0.7546      8.3376
C      2.1823     -0.4539      8.6239
C      4.9016     -1.8012      8.1793
C     -2.1056      5.0681      3.2915
C     16.3919      9.8413     19.2558
C      2.4121      3.5774      2.6458
C      4.9142      8.2484      9.7700
H      1.8924     -0.8459      9.5193
H     16.0693      8.5623     13.6564
H     -3.1281      5.2787      1.6478
H     15.1532     -9.1629     -0.5066
O      5.3508      7.3056      6.4815
C     13.6196     -4.9368      4.3817
H     16.5342     10.7142     19.7951
C     10.4212     -4.1564      3.5245
C     10.8693     -5.3025      2.7779
H      5.7994     -4.8617      8.0525
C     10.0487     -5.3604      7.4827
H      1.1565      2.6343      5.2926
H     15.0002      8.3869     10.4655
H      6.0741      1.6721      1.8954
H      1.0223      4.2813      9.1354
C      3.1462      1.9184      0.9935
C     12.8655     -4.2908      1.8620
C     -0.3151      2.9172      1.9781
C     -0.2211      4.0058      4.3818
C      7.2243     -1.9177      7.0171
H      1.7805     -0.3388      4.5699
H      9.2438     -5.1528      6.9298
H     15.5897      9.8400     18.6373
H     13.1259     -7.3016     -0.2885
O     13.0280     -3.5958      6.4077
C      6.0270     -1.0497      7.5723
C     13.5125     -6.0862      6.7204
C     15.1046      7.9068     14.0283
C     13.6309     -5.2714      2.8425
H      7.9464     -0.3045      9.6270
C      2.5442      1.1424      3.4180
C      0.2443      2.5208      7.8567
C     10.6886     -2.1770      6.8862
C     -2.7337      3.1423      4.6903
C     18.0836     12.1680     17.6368
C      2.9086      3.8349      9.8295
C      0.7283      2.3495      1.2193
C     11.6129     -4.9947      1.5591
C      3.7753     -0.7187      8.4212
N      1.6758      0.2314      3.8526
H      3.0686      2.3756     -0.8640
C      3.1909      1.5433     -0.3635
O     17.0813      6.1533     15.8466
C      9.5790      6.5729      0.6957
H     18.4260      9.4674     19.4662
H     -0.4252      1.8770      8.5748
C     -2.6433      4.5763      2.1540
C     10.0207     -4.9104      9.0778
H      7.3391      4.7132      0.1050
H      7.3856     -3.7828      6.4384
C     10.7066     -3.0120      0.8677
H      4.2156      8.9926      9.2075
H     14.8443     -5.9987      9.4557
H     12.1645     -3.7176      4.3655
H     15.5807      8.5919     11.8792
H      2.4782      0.7579     -0.7851
H     -0.3739      3.8107      9.9202
C     15.0976      7.4100     15.2967
H      5.1919      4.6786     10.0398
C     14.6106      8.3592     11.5227
C      5.9612     10.9925     10.5658
H      2.5095      3.8262     11.1123
H     15.6558     11.3542     17.0452
C      4.5668      8.5190      4.4754
C      7.7218      7.0917      2.6612
C     21.1805      9.7485     14.4875
C     18.9677      8.7394     15.1710
C      4.3293      6.3803      6.3896
C      1.7055      4.9556      2.6471
C      5.9252      6.1155      0.3609
C      5.6868      7.5662      4.2434
C      7.9581      6.8089      1.0562
C      4.3698      5.0778      7.3757
C     14.4813     -7.5420      1.0876
C      6.3788      7.0164      5.4040
H      9.9762      5.6621      0.3058
H      0.4523      1.6970      2.0712
C      6.9442      5.4808      0.9570
H     -0.2621      3.2386      3.4309
H     10.7876     -4.5795      9.5418
O      7.4953      6.5840      5.7818
H      9.0292      9.0541     11.5845
H      1.7890      3.3277      3.4802
H     12.4920     -3.3334      2.4572
H     16.4417     -8.5689      0.4405
H      4.6806      5.2469      4.4755
C     12.3188      7.7605     11.3241
C     15.7710      6.2843     15.9013
H     15.1406     -7.4523      8.7997
C     -1.8091      4.3178      4.6531
C      0.2405      6.6145      5.2190
H      4.6698      8.2274     10.8777
H      3.1545     -0.0455      5.9218
C      1.2358      5.6675      4.8564
H      2.5739      0.0338      1.7054
H     16.9324     11.0947     15.8007
H     12.5369     -5.8003      8.4562
C      7.8634     -6.7538      8.9506
C      4.1601      0.6477      8.2707
O      5.8914      4.0245      5.2683
C      6.5121      7.7842      3.1669
C      9.8218     -3.0671      5.9853
C     12.6922     -6.6977      2.8055
C     -1.6361      6.4227      3.6114
H     16.9713      8.3950     20.6536
H      4.5666      7.5077      0.5719
C      1.8406      0.9689      8.7670
C      0.5711      5.1109      3.6012
C      4.9382      3.4889      2.2017
H     13.8508     -8.2201      7.6337
H      7.7722     -4.8240      9.4005
H      7.7246      4.6031      5.1291
H     10.4725     -0.2058      7.0951
H      7.4445     -1.8692      5.9285
C     15.2893     -6.4242      8.6397
C     -1.8862      5.4354      5.6649
O     17.1009     11.8772     13.3208
C      3.0207      1.0170      2.1338
C      1.6602      4.4337      5.5661
C     14.8464     -6.3577      7.2108
C     15.2419     -8.8525      0.4765
H     11.3121     -7.3190      1.5753
H      4.2034      2.2311      1.0334
H      3.9284      0.8509     -0.7339
H     11.5661     -1.5225      6.5005
H      5.2995      0.7718      3.8435
C     12.5596     -4.1488      5.1577
C      8.6260     -5.5863      9.4429
H      4.0497      5.9822      1.3085
H     21.6758     10.4512     13.8742
C      8.4576     -1.3337      7.7144
H     10.0276      6.9566      1.7178
H      9.4317     -2.2732      5.2934
H      5.3961      1.7084      9.2516
C     12.3583     -5.7610      7.3475
C      0.4586      3.6463      5.4637
O      8.4118      4.9078      4.3234
C     11.3011     -5.0071      5.4946
C      6.1369      2.0367      7.3146
C      5.1455      2.2431      6.4486
C      3.2679      0.9784      5.8921
H      6.9974     -5.4893      7.5019
H      6.4176      3.9342      7.3014
H      8.6252     -3.4016      8.0329
H     12.3691     -2.9510      6.5810
H      1.6356     -1.4263      8.0307
C     14.7946     -7.9715      6.9667
H     -0.8463      3.8402      1.8038
C      3.8436      5.4806      5.1473
C      3.1874      2.7100      9.0549
H     20.7322     10.4751     15.4350
C      8.3970      7.1047     10.9752
H      3.6470      5.4273      8.0569
H     10.5231      7.0831     10.5523
H      7.2244      2.1930      7.0559
C      3.8789      3.0105      4.4766
C     17.7711      9.6726     18.4646
C      6.5032     -0.1125      8.5269
C      7.6359     -3.3916      7.4259
C      5.7989      4.9333      7.6040
C      5.6374      1.0980      8.4226
H     -0.4653      4.5128      8.1341
H      9.4306     -3.7469      8.8665
H     -0.0360      2.0001      0.1030
H      9.3863     -0.5675      5.9887
H     19.4527      9.9143     13.2310
H      8.1987      5.9665     11.1261
H     -1.3276      3.7314      6.4803
C     14.2661     10.0215     14.1158
H      2.6780      4.5489      9.0832
H     10.7568     -3.3107      3.2137
