265

C      6.8001      9.0252      1.0538
C      4.2375      1.1748      6.9430
C      2.2168      3.0217      1.1299
C      7.0204      4.9066      2.9584
H     -2.5897      3.3712      2.7353
C      6.9471      3.5121      3.1743
C      3.4811      3.7433      5.5471
C     -6.3918      9.7372     23.1439
C      3.1374      7.1342      6.5647
C      5.9294      1.4387      3.6138
C     -7.2041      8.8083     22.3278
C      0.7860      8.6250     13.4754
N     -0.3549      3.1286      6.6415
C      0.3031      5.9738     13.6623
O     -1.2823      2.4129      1.7502
C      3.5374      3.6885      6.7853
C      2.7375      6.1063      4.4180
C      3.5422     10.5988      3.9252
H      1.2643      1.1133      9.6606
H     -3.1440      3.8245      4.4442
H      4.8767      6.0722      2.5847
H     -7.2234     10.9266     24.8753
C      4.0659      9.1909      3.4869
H     -9.0240      8.4020     23.6123
H     -6.3400     10.8494     22.6456
H      7.9870      3.1357      3.6362
H      0.0106      7.5771     10.4844
H     -0.7144      4.9349      6.2627
C      3.1997      2.6233      7.6459
H     -2.3295      9.7294     11.9405
H      6.7883      0.8243      3.7453
O      2.2477     10.3459     14.7868
C     -4.7649     12.5849     21.5225
C     -6.0641      6.2252      9.8180
H      2.3303      0.0127      6.3050
H      2.7137      6.6258      9.7208
C      5.8898      2.5895      2.6319
H     -6.3235      4.7698      7.8949
H     -7.9003      7.1511     23.4229
C      4.6697     10.8463      4.9258
C     -2.9201      8.8598     18.2038
O      1.9687      8.5938      4.9916
C     -1.6003      8.1356      7.0521
C     -4.1725      8.0752     12.1967
C      7.7730      7.9123      0.2503
C     -6.3686      7.1532     12.5469
H      4.5400      3.6253      1.2109
H      5.3676     10.0618      1.7129
H      1.4227     -0.8324      2.9827
H     -5.2837      6.6005      7.7646
H      2.0558     11.2501     15.0195
C     -5.9695      6.7618     11.1675
C      7.8984      5.8457      3.8188
H      8.5771      9.0862      1.9722
C     -1.3943      6.7287      5.1644
H      2.6686      8.8841      7.7219
H      3.8743     -0.0028      1.9958
H     -7.9796     11.3015     23.2952
H      2.2524      6.8265      0.5498
C     -3.0469     11.6030     20.7463
C     -7.4190      5.3973      9.3414
C      3.1299      7.3380      5.1143
C     -8.0387      5.7038     13.4182
C      4.9573      9.2815      2.2262
H     -3.8421      8.0959     18.1354
H      8.8229      7.5249      3.3326
H      3.7478      1.4020     10.6360
H     -6.5264     12.3640     22.6048
H      5.3104     12.4593      3.8939
C      0.3632      3.9183      8.6152
C      0.2936      8.2195     12.2466
C      1.6607      1.9563      7.6639
C     -0.6514      6.2676     14.5291
H     -7.1063      7.7864     12.1619
H     -1.7544      2.2099      4.1515
H     -8.4608      9.7479     24.4717
C     -2.9469      7.3048     12.6897
O      1.6357     10.7376     12.6198
C     -6.9223      9.1689     20.9954
C      3.3108      8.3997      7.1737
C      3.6808      1.6028      9.4132
C      2.9398      1.3941      4.7358
H     -0.9585     10.0185     12.9888
H     -7.0425     12.5357     19.8052
H      2.5887      3.2814     10.8710
C      3.6296      3.3413      3.2544
H     -4.0327      9.4763     19.8398
C     -2.0886      8.3706     13.4284
C     -1.8489      6.9129     11.5003
H     -1.7542     10.1085     20.2158
C      5.2221      2.0503      4.7981
H      3.4859     -0.6119      5.3076
H     -4.0830     13.3704     21.6471
C    -10.4064     12.5121     21.7614
C     -8.2026     11.4327     21.0332
C     -2.1244      5.1974      3.3847
C      3.8252      9.6330      6.7208
C      2.2393      3.3812      2.6296
C     -8.1802      7.9460     22.8101
H      2.9380      8.2727      1.1872
H     -3.9130      4.7181      2.4781
H      1.5653      3.8700     12.3607
O      5.5030      6.2740      6.4804
C      0.5321      8.1438      4.5600
H     -8.5024     11.3329     19.8838
C     -2.6333      8.9444     16.4376
C     -1.9619      7.7416     15.8693
H     -7.5142      8.4989     20.2303
C     -2.7316      7.5336      7.5749
H      1.1769      2.6673      5.0499
H      1.8760      7.8058     11.0158
H      6.3015      2.4009      1.7366
H      1.2812      3.8338      8.8058
C      3.1346      1.8643      1.0238
C     -0.0403      8.6135     14.7073
C     -0.3112      2.9793      1.8057
C     -0.1708      3.9220      4.0955
C     -5.5531     11.0113     20.0283
H      1.3284     -0.2921      4.6515
H     -3.7603      7.7063      7.4584
H      3.0965     10.5755      6.5750
H      0.0318      6.3071     12.6905
O      0.4161      9.5361     19.2055
C     -6.7103     11.8790     20.5697
C      0.4995      7.1061      6.9330
C      2.0243      7.8283      0.9871
H      2.5768      8.2582      2.9749
C      0.5913      7.9435      3.1259
H     -4.1581     12.0120     22.5758
C      2.3187      0.8787      3.4481
C      0.2018      2.6444      7.8076
C     -2.1506     10.8591     19.7353
C     -2.3620      3.1039      4.7459
C      5.6154     11.8676      4.7038
C      2.7826      3.6972      9.9672
C      0.8604      2.3479      1.1347
C     -1.2709      7.7862     14.5887
C     -9.1054     12.3416     21.6081
N      1.8535     -0.3734      3.7392
H      4.2287      0.9816     -0.8251
C      3.2336      1.2390     -0.2316
O      3.9432      6.0359      2.2304
C     -3.4516      6.3194     13.6909
H      5.6677      9.0759      6.0087
C     -2.9450      4.4757      2.4946
C     -2.7704      7.2419      9.0128
H      1.1800      1.2016      7.0700
H     -5.1710      4.3897     13.8809
H     -5.9138      9.0104     19.5162
C     -1.6803      9.3430     12.7682
H     -8.0173      6.3484      8.7036
H      1.5979      7.8241      8.6569
H     -1.2158     10.0252     17.8804
H      1.9499      9.2653     11.2638
H      2.5137      1.7784     -0.7054
H     -0.0468      3.8641      9.6475
C      1.9386      7.4253      2.4440
H     -8.5092      5.1328     10.1226
C      1.1274      8.5490     10.9919
C     -7.7623     10.5188     24.0607
H      2.5415     10.5421      4.3787
C      4.4366      7.9878      4.4459
C      7.8916      7.1982      2.9212
C      8.0187      9.8757      1.6839
C      6.0723      8.5547      2.1735
C      4.1682      5.7976      6.4394
C      1.7545      4.8776      2.4497
C     -6.7090      6.0991     13.5439
C      5.6128      7.2395      4.0602
C     -4.7619      6.6564     14.2540
C     -8.6794      4.8726      7.5926
C      1.5073      5.1963     13.8849
H     -2.7142      5.2127      5.9612
C      6.0652      6.6629      5.3710
H     -3.7971      5.6354     12.9143
H      0.4576      1.2744      1.5092
C     -5.7297      5.2899     14.4184
H     -0.1899      2.9366      3.7403
H     -2.7736      6.0038      9.2803
O      7.3646      6.8794      5.5844
H     -4.0912      9.1444     11.9596
H      1.5933      2.7033      3.1847
H      3.2385      4.2452     12.7082
H      4.7589      5.3579      4.1735
C     -0.5974      7.4895     11.4800
C      2.5778      6.0272      2.6994
H      1.0723      6.6877      9.2745
C     -1.4991      4.3888      4.4583
C      0.2116      6.9770      5.4458
H     -8.9238      7.9747     22.0829
H      2.0696      1.4160      5.3771
C      1.2265      5.9899      4.9509
H      2.1470      0.0519      1.3620
H      3.9917     11.3904      3.2318
C     -5.2349      6.7750      8.8238
C      4.4283      0.8670      8.3652
C      6.5200      7.5572      3.0326
C     -3.1655     10.0805     19.0530
C     -0.2231      6.4285     15.9638
C     -1.5720      6.6284      3.6915
H     -8.8293      6.3832     12.8546
H     -2.2931      2.9031      5.7953
C      2.1522      1.1257      8.9644
C      0.6614      5.2256      3.6576
C      4.6736      3.2930      2.3641
H      2.5796      4.8402      7.8150
H     -4.5510      8.4624      9.5322
H     -2.4770     12.0658     21.4529
H     -6.1253     11.1397     19.0724
C      1.9458      6.9583      8.8299
C     -1.7403      5.3782      5.5169
C      2.9674      0.7609      2.0727
C      1.1957      4.7349      5.8430
C      1.8302      6.5568      7.2875
C      2.3421      4.1170     13.1093
H     -1.2997      5.5466     14.1333
H      4.2096      2.2724      1.2092
H      2.5828      0.3132     -0.2907
H     -1.6276     11.6601     19.0949
H      5.1468      0.9128      2.9617
C     -0.5849      9.0852     18.1430
C     -4.1253      7.3727      9.5933
H     -8.4020      4.6885     13.7358
H      8.3617     10.0421      0.7007
C     -4.3697     11.7766     20.4005
H     -2.8725      5.8857     14.3754
H     -3.8367     10.6235     18.3671
H      6.2476      1.4570      9.3777
C     -0.3295      7.7576      7.7946
C      0.6311      3.4952      5.2623
O      8.8509      5.5548      4.5220
C     -1.6908      8.1967     18.6273
C      6.5193      1.8559      7.0508
C      5.4139      2.0218      6.1419
C      3.2539      0.4302      5.8213
H      9.3855      6.2596      4.8400
H      6.7868      2.7769      7.5766
H     -7.4654      3.3411      8.4267
H     -4.8096      9.0239     20.9695
H      1.2092      8.9939     19.0232
H      5.6437     12.5756      5.5618
H    -11.2579     12.0674     21.2986
C      1.7878      5.1358      7.0175
H     -0.3466      4.1802      1.7791
C      3.8966      5.1309      5.0900
C      3.5237      2.9695      8.9856
H      7.9303     10.6770      2.3456
C     -4.7095      7.4705     10.9543
H     -9.2284      5.2073      8.4630
H     -2.3844      7.5484     10.7597
H      7.4823      1.2714      6.6618
C      3.7104      2.5575      4.5553
C      4.8575      9.7130      5.7942
C     -6.1833     12.7875     21.6961
C     -5.6879      9.6427     20.3823
C     -7.3603      4.4911      8.2772
C      5.9159      1.1157      8.4256
H      0.5673      4.6966      8.0184
H     -1.8660      7.5599      9.6427
H      0.5776      2.2507     -0.0528
H      6.3304      9.9135      0.7571
H     -1.1699      2.4389      6.3975
C      1.5757      9.9891     13.5644
H      2.3170      4.6745      9.8434
H     -2.7118      9.9499     16.0067
265

C      7.0425      9.0329      0.9647
C      4.0462      1.4127      7.0616
C      2.3305      3.0368      1.2962
C      7.2630      4.9017      2.4818
H     -3.3017      3.6384      3.0140
C      7.3250      3.4922      3.0205
C      3.6180      3.7897      5.3800
C     -6.1870      9.4378     10.5143
C      3.2819      7.0762      6.6195
C      6.0002      1.6989      3.6689
C     -6.9237      8.5579      9.5630
C      0.8427      8.6958      0.8928
N     -0.0208      2.9809      6.6604
C      0.3373      5.7186      0.6095
O     -1.2556      2.5402      2.2652
C      3.3200      3.8356      6.7283
C      2.8753      6.2093      4.6634
C      3.5207     10.4240      3.6944
H      1.3427      1.2677      9.8274
H     -3.1870      3.1670      5.0861
H      4.7696      5.6304      3.0003
H     -6.6610     11.4705     10.6229
C      4.1120      8.8123      3.3683
H     -9.0057      8.6354     10.5864
H     -5.6349      9.6463      9.6661
H      7.4658      3.4673      4.0586
H     -0.6657      7.0989     -2.4662
H     -1.4370      5.3934      6.5448
C      2.8741      2.7436      7.4741
H     -2.4934     10.0900     -0.6463
H      6.6705      1.1112      3.9469
O      2.2588     10.6980      1.7434
C     -4.9375     13.0940      8.3229
C     -6.2064      6.1412      9.6930
H      2.8914     -0.2640      6.8608
H      2.7525      6.7504      9.7920
C      6.2478      2.7232      2.5777
H     -5.6090      8.7656     11.1817
H     -8.2889     10.7856      9.1167
H     -8.1340      6.9727     10.5329
C      4.5224     10.7124      4.8318
C     -2.6955      8.7618      5.0246
O      1.9701      8.5441      5.1936
C     -1.5028      7.6612      6.9003
C     -4.4042      8.1020     12.1087
C      7.4620      7.7173      0.1354
C     -6.6475      7.0057     12.2261
H      4.9283      3.9425      1.4088
H      3.8477      8.6888      1.7396
H      1.9061     -1.0194      3.1662
H     -5.6520      6.1249      7.6455
H      2.2787     11.8748      1.5471
C     -5.8154      6.7425     10.9514
C      7.9991      5.8133      3.2712
H      9.0677      8.9704      1.9364
C     -0.9645      6.8208      5.0362
H      3.0381      8.4087      8.2333
H      1.7678      7.0503      0.3823
C     -3.2396     11.2806      7.7249
C     -7.4373      5.8448      9.0144
C      3.0629      7.5146      5.2886
C     -8.2220      5.8132     13.6758
C      4.8869      9.1488      2.0879
H     -3.5240      8.0081      4.8501
H      8.5123      7.8348      3.3977
H      3.8600      1.6445     10.5085
H     -6.3159     12.6228      9.6820
H      5.1121     12.8596      4.3829
C      0.3516      3.7600      8.7503
C      0.4654      8.0652     -0.6939
C      1.6530      1.7932      7.6814
C     -0.6367      6.5267      1.2292
H     -7.6209      7.6025     12.2393
H     -1.8026      2.3685      4.2419
H     -7.7077     10.4164     11.8490
C     -3.0802      7.5384     -0.0665
O      1.1793     10.8079     -0.0551
C     -6.6246      8.5820      8.2841
C      3.4780      8.2961      7.1856
C      3.5204      1.7597      9.4852
C      2.8575      1.3790      4.7482
H     -0.6608      9.7446      0.1879
H     -7.4952     12.6152      6.4990
H      3.4388      4.0887     10.6755
C      3.7247      3.2531      3.1908
H     -4.2278      9.1915      6.6822
C     -2.2499      8.7335      0.6793
C     -2.0890      7.1358     -1.1263
H     -1.8566      9.8053      7.3811
C      5.2542      2.0808      4.8978
H      3.9573     -0.3893      5.8775
H     -4.8103     13.8413      7.4972
C    -10.4593     12.5496      9.0013
C     -8.1945     11.3916      8.1325
C     -1.9744      5.0553      3.3386
C      3.9675      9.4542      6.6644
C      2.3780      3.6320      2.9400
C     -8.2627      7.9506      9.9896
H      2.9246      8.1106      0.4345
H     -3.5487      4.4409      1.7229
H      1.3913      3.8767     -0.3285
O      5.4939      6.8562      6.5695
C      0.6957      8.2361      4.4983
H     -8.6465     10.4600      7.5192
C     -2.4313      9.0512      3.4758
C     -2.1591      7.8073      2.8542
H     -7.4105      8.3821      7.3850
C     -2.7474      7.2895      7.5526
H      1.7385      3.2876      5.0563
H      1.3073      8.5778     -2.9062
H      6.4671      2.0419      1.5046
H      1.3164      3.6972      9.5152
C      3.3011      1.9661      1.0878
C     -0.1897      8.7003      1.9495
C     -0.2354      3.0328      1.4979
C     -0.0830      4.0164      4.2912
C     -5.8685     11.0675      7.1581
H      1.7982     -0.5593      4.8884
H     -3.3898      7.0446      6.6547
H      3.3344     10.1836      6.2250
H      0.7949      6.4015     -0.1970
O      0.2764      9.7949      6.2111
C     -7.1142     12.0223      7.4511
C      0.5360      7.2028      6.7045
C      2.1472      7.7798      1.1712
H      2.6815      8.4240      3.1850
C      0.6386      7.8775      2.9589
H     -4.2991     13.7844      8.7905
C      2.5547      0.6538      3.5230
C      0.3084      2.5411      7.9043
C     -2.5319     10.4710      6.6994
C     -2.1289      3.1986      4.9420
C      5.1206     11.9465      4.9636
C      3.1260      4.0985      9.5796
C      0.8918      2.3716      1.0352
C     -1.4728      8.0185      1.6304
C     -9.1095     12.4653      8.7368
N      2.0643     -0.3399      3.8841
H      4.2133      1.9346     -0.6592
C      3.2609      1.4609     -0.4394
O      4.2106      6.4838      2.6825
C     -3.5497      6.5032     13.7533
H      6.0509      9.5201      6.1476
H     -0.5411      2.1184      8.1271
C     -2.9027      4.5490      2.6693
C     -2.9115      7.4244      9.0464
H      1.3338      1.1700      6.9561
H     -5.2316      4.4425     13.6980
H     -5.3662      8.7397      6.7512
C     -1.6685      9.7462     -0.1293
H     -7.7326      6.8061      8.6100
H      1.2703      7.9397      8.7673
H     -0.6427      9.9893      4.3853
H      2.4731      8.8489     -1.3916
H      2.3348      2.1643     -0.6944
H     -0.3169      3.6982      9.6145
C      2.1657      7.5119      2.6636
H     -8.0003      5.3221      9.7557
C      1.3126      8.6437     -1.5539
C     -7.1883     10.6240     10.9490
H      2.3424     10.3623      3.8205
C      4.4404      8.2291      4.5834
C      7.8857      7.1531      2.7624
C      8.1727      9.8054      1.6870
C      6.1925      8.3878      1.9882
C      4.4216      6.0612      6.3448
C      1.7370      4.9911      2.6326
C     -6.9101      5.8972     13.1344
C      5.7496      7.2837      4.2449
C     -5.0627      6.7717     14.0332
C     -8.6828      4.8640      7.4087
C      1.5035      5.1289      1.1601
H     -2.6926      5.5118      5.6081
C      6.2947      6.7362      5.3574
H     -3.5168      5.4701     13.5068
H      0.5861      1.5942      1.4938
C     -5.7966      5.4356     14.0258
H     -0.0081      3.1630      3.3092
H     -2.6069      6.4800      9.5738
O      7.4990      6.9335      5.7171
H     -3.8159      8.9219     11.8945
H      1.5033      3.1266      3.4869
H     -0.3327      9.9892      2.3344
H      3.0052      4.5313     -0.1740
H      4.9806      5.4048      4.4005
C     -0.8871      7.3728     -1.4042
C      2.6235      6.1037      2.9590
H      1.1054      6.2019      9.4372
C     -1.3561      4.5471      4.5367
C      0.4158      7.0151      5.2388
H     -8.6397      7.8972      8.7777
H      1.7888      1.8505      4.9415
C      1.3516      5.9148      4.7728
H      2.0651      0.4185      1.4899
H      4.0710     10.9628      2.9306
H     -0.1808      6.7662      8.5895
C     -5.1680      6.0563      8.7510
C      4.4294      0.8475      8.4519
C      6.5383      7.6198      3.0293
C     -3.3764      9.8149      5.8224
C     -0.1607      6.2707      2.8804
C     -1.6588      6.4932      3.3713
H     -8.9125      6.8523     13.6320
H     -2.2586      2.9843      6.1580
C      2.0677      1.0771      9.0558
C      0.6944      5.3366      3.5722
C      4.7187      3.4892      2.3681
H      1.5859      4.9235      8.0136
H     -2.7548     12.4300      7.9713
H     -5.5897     11.1714      6.1091
C      1.9111      6.9814      8.7880
C     -1.6001      5.5138      5.6609
C      2.8391      0.7110      2.0771
C      1.1000      5.0090      5.9663
C      2.0128      6.5256      7.3979
C      2.2399      4.1455      0.4115
H     -1.5788      6.0317      1.3094
H      4.4088      1.8050      1.4965
H     -1.9481     11.3270      6.2760
H      5.0403      1.1715      3.4125
C     -0.3447      9.1334      5.1033
C     -4.2536      7.1947      9.1372
H     -8.7297      4.9264     13.9798
H      8.6758     10.3728      1.0157
C     -4.5101     11.7479      8.0754
H     -2.9718      6.1530     14.4577
H     -3.9249     10.3085      5.1334
H      6.2107      1.6149      9.7631
C     -0.2914      7.3377      7.6428
C      0.7543      3.7586      5.4758
O      8.6242      5.5965      4.3059
C     -1.4815      8.0651      5.4739
C      6.4511      1.6663      7.0519
C      5.2037      1.9586      6.2432
C      3.2850      0.5614      6.0550
H      7.9903      6.1908      5.1240
H      7.1780      2.7217      6.9989
H     -7.5790      3.6067      8.4070
H     -4.8219      9.6133      8.0811
H      1.1802      9.5843      6.6562
H      5.8928     11.3407      5.6139
H    -10.7175     11.4639      9.1171
C      1.9868      5.2169      7.0370
H     -0.7768      3.9927      1.5034
C      4.1548      5.1665      5.0975
C      3.4745      3.0501      8.7318
H      7.5335     10.4031      2.3616
C     -4.6261      7.3157     10.6746
H     -9.0228      5.0762      8.4799
H     -2.2549      7.0502     -2.1572
H      6.8756      0.3981      6.7777
C      3.8081      2.4667      4.3826
C      4.8967      9.4100      5.5990
C     -6.4295     12.9662      8.6213
C     -5.5855      9.4621      7.4589
C     -7.3359      4.5904      7.9081
C      5.8500      1.3319      8.6628
H     -0.1952      4.7231      8.1223
H     -2.6273      8.4614      9.0475
H      0.8445      2.0153     -0.0678
H      6.6430      9.9157      0.4629
H     -0.4614      2.2315      6.1771
C      1.4614     10.0416      0.8989
H      2.7886      5.1102      9.6337
H     -2.0523     10.0988      2.9761
265

C     19.9238      8.9891     14.0273
C      4.0842      1.5146      7.1098
C      2.2331      2.9485      1.1793
C      7.2676      4.8710      2.3265
H     -3.1122      3.5549      2.8056
C      7.3874      3.5930      2.8269
C      3.5608      3.9032      5.3240
C     -6.0652      9.4539     10.8203
C     16.2601      7.1846     19.5258
C      6.0036      1.5729      3.6922
C     -6.9283      8.9906      9.5918
C     13.8087      8.6826     13.6569
N      0.0577      3.0322      6.4336
C      0.4438      6.0220      0.3706
O     -1.2964      2.5697      2.0069
C      3.5336      3.8252      6.6504
C     15.5693      6.4290     17.2868
C     16.5595     10.4258     16.8107
H    -11.4727     13.8063     10.0932
H     -3.7444      3.5013      4.9793
H     17.7366      7.2350     15.6912
H     -6.9759     11.4981     10.6264
C     17.1777      9.0719     16.4532
H     -8.1027      8.3471     10.9533
H     -5.2473      9.6519     10.1231
H      7.8023      3.0224      3.6853
H     12.5372      7.1846     10.7395
H     -1.0767      5.3237      6.8214
C      3.0926      2.6351      7.3533
H     -1.9494     10.0821     -1.1457
H      6.7195      0.8366      3.5380
O     14.9624     10.5179     14.7661
C     -4.8523     12.7948      8.7096
C      7.0649      6.0386      9.5190
H      2.9527      7.0663      8.9102
C      6.1793      2.6806      2.7208
H      6.7060      4.7036      7.6534
H     -6.4315      8.5634     11.3651
H     -7.6106     10.8341      9.1134
H     -7.5708      7.0744     10.1902
C     17.7234     10.6909     17.9375
C     -2.7580      8.8192      4.9332
O      2.1055      8.7142      5.0660
C     -1.5467      7.8102      6.9998
C      8.7179      8.1770     12.0153
C     20.4451      7.7943     12.9162
C      6.4456      6.9351     -0.7493
H      4.5814      3.9827      1.6654
H     17.1154      9.8857     14.6305
H      2.0302     -1.0958      3.7946
H     -5.0880      6.0816      7.5954
H     14.8498     11.5646     14.4852
C      7.2272      6.6334     10.8213
C      7.8250      5.8549      3.2148
H     20.9579      8.7063     15.6552
C     -1.2502      6.7073      5.0090
H     15.6413      8.7042     20.9577
H      3.3049     -0.2965      2.4609
H     -8.0769     10.5017     10.8927
H     15.3051      7.2336     13.6531
C     -3.1640     11.3060      7.7838
C      5.8140      5.5940      8.9789
C     16.0972      7.5200     18.1512
C      4.5625      5.6619      0.3113
C     17.5739      9.0963     15.2303
H     -3.6854      8.1129      5.3529
H      8.9532      7.0369      3.3153
H     -9.6389     14.2244     10.6027
H     -6.9792     12.3942      9.7718
H     17.3110     12.7015     17.1165
C      0.2623      3.9228      8.6746
C     12.9683      8.1299     12.5178
C      1.6787      1.7831      7.8873
C     -0.6437      6.4381      1.3150
H      5.6257      7.5645     -0.4077
H     -2.4107      2.4581      4.3062
H     -6.8864     10.5129     12.3936
C      9.9520      7.5322     12.7589
O     13.8751     10.7747     12.7696
C     -6.8322      8.9224      8.3746
C     16.4264      8.5095     20.3553
C     -9.4469     14.5668      9.5607
C      2.7210      1.6868      4.4833
H     -1.0207     10.2423      0.2200
H     -7.4016     12.4368      6.8827
H     -9.7554     16.7754     10.7725
C      3.7715      3.2745      3.1202
H     -4.1432      9.9816      6.1185
C     -2.1768      8.6881      0.5278
C     10.8101      6.8778     11.8731
H     -1.3680     10.4565      7.1466
C      5.1890      2.2575      5.0910
H      4.2944     -0.2209      5.9851
H     -4.5508     13.6064      8.2369
C    -10.5743     12.4086      8.9328
C     -8.1135     11.2338      8.1477
C     -2.0892      5.1997      3.4317
C     16.7144      9.4647     19.5642
C      2.3137      3.5458      2.7000
C     -8.0294      8.0472      9.9770
H     16.1000      8.6869     14.0575
H     -3.3743      5.2077      2.0192
H      0.9568      4.0313     -0.1296
O      5.5261      6.8317      6.3504
C      0.7133      8.3349      4.4407
H     -8.9103     10.6628      7.3551
C     -2.4762      8.7452      3.3465
C     -2.0608      7.4708      2.7554
H     -7.2998      8.1193      7.6901
C     -2.6384      7.1632      7.6064
H      1.7612      2.9937      4.8706
H      6.1370      2.1649      1.5685
H      1.1458      3.6631      9.0738
C      3.1904      1.7168      1.0113
C     -0.0665      8.7032      2.0353
C     -0.2319      2.9345      1.4543
C     -0.2146      3.8637      4.2413
C     -5.8131     10.9422      7.2843
H      2.8854     -0.2369      5.0361
H     -3.7041      7.2435      7.2328
H     16.1240     10.3945     19.7825
H      0.6935      6.0525     -0.7643
O      0.2398      9.5613      6.2648
C     -7.0240     11.9631      7.7144
C      0.6669      7.0811      6.6894
C     15.0352      8.1343     13.9412
H     15.9118      8.1590     15.9812
C      0.6507      7.8161      3.0103
H     -4.0761     13.3045      9.2762
C      2.4198      0.7900      3.4107
C      0.3566      2.6997      7.7943
C     -2.1623     10.9284      6.6558
C     -2.7179      3.0836      5.0161
C     17.9410     12.0680     17.7330
C     -9.7560     16.9694      9.7254
C      1.0197      2.2786      1.2453
C     -1.2561      7.9174      1.6208
C     -9.1417     12.1975      8.6282
N      2.4221     -0.2876      4.1751
H      4.0009      1.7341     -0.9130
C      3.3422      1.2083     -0.2624
O     16.9327      6.3414     15.3082
C      9.4819      6.4652      0.7785
H     18.7787      9.8019     19.3409
H     -0.4800      2.0790      8.3476
C     -2.9806      4.4700      2.5920
C     -2.7806      7.4442      9.1338
H      1.7604      1.1101      6.7533
H      7.3690      4.6196      0.4162
H     -5.9343      8.9164      6.6973
C     -1.7812      9.7065     -0.1792
H      5.3231      6.4807      8.2482
H      1.4196      7.7066      8.9325
H     -0.9865      9.9701      4.3659
H     14.7952      9.0799     11.9677
H      2.5606      1.6579     -0.9269
H     -0.2043      3.7290      9.6977
C     14.9467      7.6211     15.4012
C     13.8777      8.6538     11.5695
C     -7.0046     10.5143     11.3238
H     15.7451     10.6971     17.7229
C      4.5503      8.1905      4.5861
C      7.8292      7.2291      2.8775
C     21.0206      9.5372     14.8928
C     18.7845      8.6415     15.0196
C      4.2252      6.0893      6.2842
C      1.8946      5.1349      2.5341
C      5.8511      5.8975      0.3357
C      5.6258      7.2615      4.1697
C      7.9468      6.6184      1.1031
C      4.3023      5.0599      7.3983
C      1.6014      5.3284      1.0746
H     -2.6544      5.9651      5.8417
C      6.3135      6.8350      5.2878
H      9.9159      5.5936      0.2918
H      0.8743      1.4550      1.8145
C      7.0381      5.3989      1.0487
H     -0.2107      2.8959      3.6529
H     -2.1330      6.7481      9.5776
O      7.4505      7.2077      5.7326
H      8.6707      9.2135     12.1370
H      1.7131      2.9003      3.2688
H     -0.0302      9.7138      2.1577
H      3.1127      4.3722      0.0959
H      4.6698      5.6772      4.0067
C     12.0149      7.4235     11.6911
C     15.5461      6.3232     15.8853
H      1.6458      5.8768      9.2467
C     -1.6680      4.2982      4.6456
C      0.4203      7.0551      5.1669
H     -8.9351      8.0893      9.1590
H      1.8762      1.6126      5.3531
C      1.3230      5.8736      4.7524
H     16.7450     11.1476     16.0721
H     -0.1379      7.5755      8.5801
C     -4.9082      6.0661      8.7038
C     -8.6857     13.7272      8.5718
C      6.3596      7.6052      3.0122
C     -3.0970     10.1666      5.7262
C     -0.0997      6.4444      2.9514
C     -1.3968      6.4755      3.5559
H      4.1122      6.6716      0.4505
H     -2.0238      2.6290      6.0284
C    -10.8851     13.9262      9.0696
C      0.6066      5.2879      3.6252
C      4.9297      3.3175      2.3828
H      1.7793      4.4803      7.9831
H     -4.7954      8.1690      8.8785
H     -2.6005     12.2773      8.3849
H     -5.9582     10.8678      6.1960
C      2.0210      6.7912      8.6537
C     -1.6470      5.4763      5.6170
C      2.7225      0.5690      2.0022
C      1.2542      4.9487      5.7929
C      1.9873      6.7315      7.1456
C      1.9663      4.1962      0.3277
H     -1.4501      5.7237      1.1529
H      3.9670      2.4434      1.0711
H      3.4680      0.0015     -0.2681
H     -1.6503     11.9702      6.6613
H      5.0732      1.1927      3.0104
C     -0.3549      9.1886      5.0211
C     -4.1931      7.4418      9.2704
H      3.9232      5.1888      1.1880
H     21.8195      9.7511     14.4467
C     -4.5309     11.6450      7.8735
H      9.9439      6.9933      1.8389
H     -3.1475     10.7353      4.8149
H     -7.3023     14.6448      9.5799
C     -0.2229      7.3735      7.6031
C      0.9370      3.5522      5.4472
O      8.5750      5.6489      4.1695
C     -1.3162      8.1971      5.6443
C     -6.3305     14.6141      7.1968
C      5.5278      1.9850      6.3649
C      3.4688      0.4219      6.4043
H      8.3340      6.8971      5.3689
H     -6.0412     15.4377      7.6381
H      5.6724      3.5275      7.9216
H     -4.6282      9.0975      7.2998
H      1.0583      9.9295      6.6995
H     18.8672     12.1208     18.2161
H    -11.5529     11.6879      8.9739
C      1.7597      5.0621      7.0458
H     -0.3260      3.9517      0.9836
C      3.8727      5.4222      4.7896
C     -9.6219     15.8850      8.9740
H     20.1518     10.2103     15.0988
C      8.3372      7.4708     10.7843
H      3.3974      5.4872      8.1546
H     10.1925      6.7002     11.0162
C      3.7797      2.6222      4.6435
C     17.8934      9.5358     18.6928
C     -6.3159     13.0511      8.8736
C     -5.7660      9.4274      7.6136
C      5.6715      4.6792      7.9282
C     -7.1439     14.2223      8.6077
H     -0.0964      4.5715      7.8582
H     -2.5129      8.5485      9.2921
H      0.7769      1.7915      0.1000
H     19.6505      9.7938     13.2599
H     -0.1257      2.1692      6.0395
C     14.2426     10.0261     13.5894
H     -9.4056     17.9688      9.7138
H     -2.2369      9.6613      2.9828
