263

C     19.3799      8.5345     13.6700
N     -1.8468     10.9176      1.8702
C      3.8525      1.4168      6.9583
C      2.1803      2.3098      1.5341
C      7.4932      4.9685      2.2439
H     -3.2238      7.2646      2.6398
C      7.1328      3.4447      2.4346
C      3.0759      3.9115      5.3456
C     16.1426      7.0864     19.4924
C      5.8311      1.9783      3.8213
C     -7.0738      8.2778      9.7513
C     14.0396      8.7974     13.4958
N     -0.0870      2.7051      6.3601
C      0.1462      5.8440      0.5985
O     -1.4875      2.6329      1.1875
C      3.1104      3.9545      6.9396
H      0.1512      5.1787     -0.2551
C     15.7862      6.1599     17.4253
C     16.4166     10.1490     16.4365
H    -11.7282     13.8665      9.5175
H     -3.5926      3.1114      4.4760
H     17.3481      5.4832     15.5983
C     17.1485      8.8708     16.3042
H     -8.8854      7.1762     10.9825
H     -7.3717      9.4283     10.1695
H     -1.1541      5.5813      6.6722
H      7.9148      2.3944      8.1346
C      2.9754      2.5751      7.5857
H      6.5674      1.3296      4.1031
O     13.8644     10.6641     14.7690
C     -4.8356     12.8354      8.4738
C      6.6496      5.8798      9.6696
H      2.0786      0.5641      6.3122
H      2.9541      6.1880      9.1468
C      6.1651      3.4164      3.3556
H      5.1262      3.1290      6.6993
H     -7.8730     11.1642      9.7683
H     -9.0749      8.1030      9.6516
C     17.3276     10.9024     17.4065
C     -2.7392      8.6329      5.0547
O      1.9990      8.5648      4.9876
C     -1.2988      8.3842      7.0506
C      8.6401      8.2768     11.8096
C     20.2957      7.7816     12.7765
C      6.4791      6.8950     -0.9011
H      4.9241      3.8274      1.3886
H     17.4396      9.6493     14.4182
H      1.7313     -1.4063      3.3344
H     -3.8163      6.2047      7.1997
C      7.9887      2.8113      9.2999
C      6.9839      6.9165     10.5119
C      7.8678      5.8601      3.1823
H      7.6497      7.3743      1.7582
C     -1.2829      6.9647      5.1666
H     16.1296      8.3894     21.0477
H      3.2849     -0.9748      2.4319
H     15.0657      6.4528     13.2612
C     -3.1331     11.8443      7.1506
C      6.1878      4.5633      9.1456
O      5.6635      2.9221     10.5732
C     15.9675      7.4809     18.0422
C      4.8707      5.3484     -0.3012
C     17.5101      8.6801     15.0031
H     -3.3770      7.6228      5.2276
H      8.1590      8.0741      3.6345
H     -9.4312     14.5804     10.3573
H     -5.7838     13.2570     10.0023
H     18.4428     12.9952     16.6870
C      0.1474      3.5130      8.9125
H     20.4770     10.6491     14.1531
C     13.0566      8.7717     12.2150
C      1.6611      1.8887      7.7702
H     -1.6614      8.3511      9.8474
C     -0.9056      6.0892      1.5509
H      5.4538      7.1865     -1.1674
C      9.9307      7.7723     12.5290
O     15.7468     10.4918     13.2676
C     -6.5331      8.6767      8.5760
C     16.6833      8.2412     20.1390
C     -9.4748     14.2969      9.3481
C      2.6408      1.3366      4.6669
H     -2.5052     11.7350      1.6885
H     -7.4181     12.0992      6.9338
H     -8.8793     17.8200     10.1352
C      3.6429      3.1645      3.1169
H     -3.9382      9.8191      6.1353
C     -2.2890      8.5916      0.8305
C     11.0095      7.4206     11.3768
C      4.9683      2.1724      4.9544
H      3.6464     -0.3546      5.6602
H     -1.4192      1.7370      0.5891
C    -10.3907     12.4293      8.8950
C     -8.1463     11.0468      8.6450
C     -2.3232      5.2145      3.5388
C     16.6482      9.5213     19.5265
C      2.3121      3.5309      2.7633
C     -8.2218      7.2868      9.8105
H     15.8664      8.4042     13.3724
H      9.1518      4.8849      4.8002
H      1.7346      3.7027     -0.3446
O      5.4024      6.6720      6.3417
C      0.5655      8.1297      4.3791
H     -8.3573     10.0775      7.9130
C     -2.7957      8.8426      3.6011
C     -2.1478      7.6507      2.9267
H     -6.1179      7.8403      7.7437
C     -2.4883      8.4233      7.7638
H     13.2656      8.9365      9.8623
H      4.4252      3.4591     -0.6146
H     -0.4398      4.3051      8.5370
C      3.1801      1.2255      1.8713
C     -0.1093      8.5881      1.7505
O      5.1053      4.0111     -0.1839
O      7.4653      4.3959     11.0463
C     -0.1038      3.0981      1.2229
C     -0.1758      4.0452      4.1309
C     -5.7509     10.8038      7.6246
H     -3.2070      7.9586      7.3585
H     15.7099     10.2640     19.8417
H     -0.5882     10.1759      4.4260
H      0.4846      6.6684     -0.0510
O      0.1801      9.6831      6.1707
C     -6.8599     11.5836      7.8147
C      0.7498      7.1945      6.7725
C     15.1241      7.6487     13.7617
H     15.3006      8.6577     15.6203
C      0.5550      7.7721      2.8413
H     -4.4282     13.6551      8.8718
C      2.3641      0.1856      3.8276
C      0.1732      2.6221      7.7959
C     -2.4432     11.0747      6.1103
C     -2.5941      3.3332      5.0188
C     18.0962     12.2732     17.5777
C     -9.7765     16.9424     10.0582
C      0.7822      2.0881      1.2464
C     -1.2955      7.8413      1.5339
C     -9.1044     12.2354      8.6806
N      1.8862     -0.9123      4.3695
C      4.1580      1.1939      0.7325
O     17.0394      6.2664     15.2201
C      9.4744      6.4735      0.0076
H     -0.5491      1.7622      7.9017
C     -2.8812      4.7212      2.3576
C     -2.7052      8.4064      9.0372
H      8.1700      2.2148     10.2602
H      1.3057      1.0004      7.1377
H      7.2742      4.1778     11.9452
H     -5.4067     10.2639      9.7781
C     -2.5615      9.8263      1.0786
H     -8.5229      6.3541      9.0604
H      2.0166      7.7048      9.0301
H     -0.7044      9.3942      2.5496
H     14.5155      9.8672     10.8527
H      4.1677      0.2065      0.4316
H      1.3669      3.7282      8.9782
C     14.8858      7.5148     15.2482
C     13.5594      9.4023     10.9384
H      5.4483      3.2363     11.4741
H     15.8596     10.1574     17.2924
C      4.4642      8.0309      4.5033
C      7.5643      7.2233      3.0175
C     20.4727      9.3655     14.3058
C     18.6399      7.9587     14.6698
C      4.2319      5.9341      6.2396
C      1.7424      4.9321      2.4315
C      6.3117      5.7204     -0.1235
C      5.3135      6.9163      4.1802
C      8.1488      6.6457      0.5862
C      4.2407      4.6442      7.3091
C      1.3284      5.0329      1.0962
H     -2.7279      5.5052      5.8948
C      6.3566      6.3130      5.3911
H     -2.0976      2.6167      4.4856
H     -3.3754      4.6262      1.3547
H      0.3455      1.1811      1.0994
C      7.1604      5.5379      0.9341
H     -0.3898      3.7972      2.9661
O      7.5402      6.8931      5.7772
H      8.1715      9.2669     11.4156
H     20.1118      9.6934     15.2800
H      1.6956      3.2244      3.6489
H     -1.6392     10.6906      2.8090
H      4.8380      5.0600      4.4406
C     12.3606      7.6848     11.6155
C     15.8144      6.5002     15.9305
H      1.2644      6.3763      9.3144
C     -1.9399      4.5126      4.7309
C      0.3918      7.0352      5.2329
H     17.8731      8.2182     20.6136
H      1.4722      1.6426      4.6837
C      1.3036      5.9302      4.8209
H    -11.2891     11.8183      8.9654
H      1.6976     -0.5482      1.7957
H     16.2699     10.8105     15.5477
H     -0.2258      7.9353      8.8213
C     -4.4756      6.7837      8.2545
C     -8.5597     13.6862      8.3028
C      6.1904      7.4585      2.9439
C     -3.2008      9.9778      5.3935
C     -0.3062      6.3956      2.9186
C     -1.6294      6.4848      3.7001
H     -2.3906      3.3382      6.1705
C    -10.7715     13.8255      9.1687
C      0.6599      5.2394      3.5515
C      4.8767      3.4215      2.3802
H      1.3221      4.8631      8.0145
H     -4.9477      8.8234      8.6350
C      6.8504      3.5909      9.9495
H     -2.6468     12.7786      7.2381
C      2.1311      6.7583      8.6772
C     -1.7421      5.6320      5.7719
C      2.5899     -0.0055      2.2488
C      0.6829      4.9620      6.0882
C      1.9909      6.4892      7.2617
C      2.1430      4.7020      0.1558
H     -1.9056      5.4281      1.4959
H      3.5793      1.5884      2.8529
H      5.1557      1.1663      1.3447
H     -5.2634      5.9824      8.6059
H      8.9352      3.1909      9.2905
H      5.4324      1.3764      2.8393
C     -0.3550      9.2822      5.0479
C     -3.9352      7.4707      9.4040
H      3.9110      5.8216      0.1762
H     -3.9524      9.1010      3.2295
C     -4.4109     11.7412      7.6663
H     -3.2408      3.6301      2.7673
H     -3.8534     10.4415      4.5315
H     -6.6407     14.9744      8.9795
C     -0.1061      7.9256      7.7605
C      0.3779      3.7855      5.5346
O      8.3997      5.5080      4.4210
C     -1.5734      8.3138      5.6337
C     -6.5437     14.2634      6.9745
C      5.1265      2.0619      6.4746
C      3.1651      0.6564      6.0607
H      8.1525      6.9561      5.0597
H     -5.7574     14.7160      7.7610
H     -8.3136     15.9645      8.6241
H     18.8233     12.5761     18.5212
C      1.7905      5.0285      7.0732
H      0.1069      4.0467      0.9878
C      3.8073      5.1379      4.9774
C     -9.4410     15.7064      9.0203
H     21.4266      9.2594     13.9208
C      8.3003      7.4565     10.7202
H    -10.6172     17.3077     10.5488
H     10.6511      6.7113     10.6287
H     -6.0754     13.2811      6.6656
C      3.6666      2.7100      4.5458
C     17.4189      9.9542     18.5265
C     -6.1295     12.6783      8.9126
C     -5.5295      9.7297      8.7921
C      5.1594      4.0900      8.1426
C     -6.9414     13.9574      8.4001
H     -0.0720      2.9153      9.7708
H      2.8666      2.6755      0.4371
H     18.9739      9.1225     12.6884
H     10.1414      5.7724      0.5130
H      0.4252      1.7527      6.1400
C     14.6208     10.0427     13.9176
H     -9.0702     16.4864     11.1153
H     -2.5458      9.8415      3.3972
