272

C     19.6867      9.0807     13.8636
C      4.3863      1.5448      6.9491
C      2.7393      3.0030      1.2169
C      7.0926      5.1859      2.6310
H     -3.8090      3.7856      1.5507
C      7.6693      3.7685      2.6713
C      3.0314      3.9500      5.2430
C      6.5687      9.8174     11.0561
C     15.6621      7.0510     19.4214
C      6.3352      2.1053      4.0728
C      5.8602      8.4653     10.2873
C     13.7715      8.8243     13.4935
N     -0.1903      2.9542      6.1970
C     13.6000     -7.3777      0.0992
O     -1.6318      1.6817      2.8231
C      3.2715      3.9019      6.7744
H     13.0259      6.7608     12.0547
C     15.3572      6.3644     17.2130
C     16.1747     10.6231     17.0755
H      1.8127     -0.0884      9.3390
H     -2.3771      3.1148      5.6425
H      6.2772      5.1193      3.4925
H      7.3606     10.8372      9.3702
C     16.8064      9.3906     16.4399
H      7.3429      9.1481     11.0402
H      8.1084      3.5026      3.6801
H     13.0322      7.3311     10.5582
H     -0.7801      4.8228      6.3928
C      3.3356      2.6464      7.4640
H      9.2394     -2.5906      0.7743
H      7.3188      2.0889      4.6528
O     14.8586     10.4412     14.9066
C      8.8188      0.3498      8.3508
C      6.5599      6.2529      9.7316
H     14.7646     -5.7091      8.6981
C      6.2774      2.8499      2.8016
H      6.1026      4.7469      7.4742
H      6.0260      9.5654     12.0130
H      5.2078     -2.0516      6.6380
H      4.2717      8.6092     11.4289
C     17.2456     10.7556     18.0636
C      9.9553     -4.4530      4.7799
O     14.4465     -4.4331      4.6963
C     11.0197     -5.6761      6.9279
C      8.5850      8.4713     11.9504
C     20.5002      8.1196     13.0710
C      6.4711      7.4379     -0.5717
H      5.1466      4.4296      2.1943
H     17.8403     10.2451     14.8581
H      1.1906     -0.4871      3.8947
H      7.8210     -8.1659      9.8094
H     15.1661     10.7649     17.5492
C      6.5520      7.2765     11.0055
C      8.3157      5.8935      3.4319
H     20.8942     10.9969     13.6083
C     -1.2188      6.4123      5.0175
H     14.8837      8.6328     21.1163
H      4.4565      0.1062      2.4281
H      5.7591     11.0452      9.3491
H      4.9968      6.0987      1.2430
C     10.5198     -1.7575      7.3855
C      5.3923      5.6391      9.2904
C     15.6207      7.6133     17.8982
C      4.8881      5.7148      0.1037
C     17.6166      9.4763     15.3841
H      8.9252     -4.7613      4.5576
H      8.7375      7.9681      3.1681
H      4.1773      1.4265     10.2405
H      7.0853     -0.6064      9.6095
H     19.1842     11.8503     17.8244
C      0.1762      2.7194      8.6622
C     13.3109      8.5370     12.0305
C      1.6638      1.8127      7.3369
C     12.5615     -6.7336      1.0814
H      5.6944      8.1500     -0.0685
H     -3.3456      3.6652      4.7445
H      6.1858      4.0199      5.9757
H      6.3374     11.7592     10.9206
C      9.8087      7.6914     12.6501
O     14.6749     10.6746     12.4524
C      6.2700      8.7151      8.8374
C     15.8919      8.3139     20.3331
C      3.8575      1.3634      9.2325
C      3.3687      1.5947      4.7485
H     10.5880     -2.5701      1.6311
H      4.6587      6.2537     -0.8479
C      3.9268      3.3651      3.2477
H      9.0832     -2.5024      4.9644
C     10.5776     -4.2997      0.5702
C     10.9843      7.4933     11.5879
H     13.6424     -3.4298      5.8295
C      5.5687      2.8848      5.0552
H     17.8061     12.0344     16.4655
H      8.1092      3.1944      1.9519
H      9.2019      1.2426      7.9610
C      3.3610     -0.6818      8.2748
C      5.6225     -1.2716      7.1441
C     -1.8760      4.8684      3.2631
C     16.2087      9.7409     19.6909
C      2.6182      3.5431      2.5072
C      4.3541      8.7307     10.5128
H      2.5433     -1.3271      7.9228
H     15.9172      7.6869     13.7563
H     -2.2885      4.8348      1.2818
H     13.1429      9.5643     11.5653
H     16.0553     -9.1413     -0.9393
O      5.2106      7.2447      6.4847
C     13.2800     -5.0959      4.4114
H     16.2165     10.5487     20.5400
C     10.3396     -4.4490      3.3857
C     10.8381     -5.4226      2.6271
H      5.5137      9.6558      8.6425
C      9.8102     -5.9783      7.5728
H      1.1021      2.2845      5.0690
H     15.7382      8.3488     12.0530
H      6.3897      2.2135      1.9439
H      0.9677      3.3267      9.4336
C      3.3232      1.7274      0.9397
C     12.8279     -4.4120      1.8970
C     -1.8026      2.7115      1.6295
C     -0.1059      3.6496      3.8639
C      8.0771     -1.6779      7.0907
H      1.8936     -0.3037      5.0175
H      8.7777     -5.8524      7.3959
H     15.6312     10.2181     18.8425
H     14.9615      6.7629     13.1214
O     12.6788     -3.6260      6.0528
C      6.9728     -1.0262      7.5859
C     13.2649     -6.1410      6.7564
C     14.8454      7.5793     13.7834
H     15.3128      8.5194     15.4200
C     13.4199     -5.3473      2.8791
H      9.3870      0.1744      9.4058
C      2.7397      1.0602      3.5318
C      0.4947      2.6338      7.3098
C     10.2244     -3.1985      6.8114
C     -2.5031      3.0466      4.6082
C     18.2714     11.5842     17.3997
C      3.3543      3.8130      9.6405
C     -0.6586      3.0383      0.7952
C     11.6649     -5.1600      1.4352
C      4.6366     -0.4888      7.8291
N      1.9015      0.1677      4.1170
H      3.5849      0.1398     -0.5155
C      2.8459      1.0830     -0.2309
O     17.2064      6.2631     15.5207
C      9.3250      6.7691      0.7719
H     18.5705      9.2008     18.7407
H      1.8092      1.2955      8.3669
C     -2.5899      4.1046      2.0182
C      9.9712     -5.6895      8.9314
H      1.7336      1.0203      6.4799
H      7.4283      4.8513      0.6273
H      7.4912      9.4493      7.5295
C      9.9723     -3.2202      1.1768
H      3.9984      8.2406      9.5111
H     13.7303     -6.8179      8.9534
H     -2.4415      5.1609      6.0963
H     11.7959     -3.5748      4.2740
H     14.8463      7.6469     10.6053
H      3.4951      1.7476     -1.0772
H      0.1689      1.7721      9.4412
C     14.8228      7.6348     15.2970
H      4.5006      5.9116      9.7286
C     14.7681      8.3687     11.4252
C      6.4913     10.9853     10.2108
H      2.9643      4.0236     10.6039
H     16.1762     11.6364     16.2139
C     16.8900      8.3256     17.5580
C      7.9380      7.3149      2.7701
C     20.1049     10.4707     14.2066
C     18.8120      8.5641     15.0773
C      4.0375      6.1451      6.2712
C      1.9754      5.0042      2.3732
C      6.1515      6.2783      0.1789
C      5.5875      7.4142      4.1816
C      8.0382      7.0982      1.0909
C      4.1007      5.0146      7.3023
C     14.6535     -7.8775      0.8208
H      7.7421      6.8706      5.7675
C      6.3224      7.6739      5.3940
H      9.5696      5.5717      0.3409
C      7.0814      5.6980      1.2050
H     -0.0801      2.6551      3.0388
H     11.0998     -6.0422      9.3197
O      7.4302      7.8060      6.1080
H      9.0056      9.4401     11.8570
H      1.7035      3.2079      2.9880
H     12.5737     -3.4374      2.0365
H      4.2114      5.4309      4.1665
C     12.4431      7.4416     11.6051
H      8.0512     -7.6908      8.4836
C     15.5284      6.2678     15.8324
H     15.1983     -7.2581      9.1667
C     -1.4133      4.1287      4.3909
C      0.3028      6.6839      5.3212
H      4.4239      9.8460     10.4427
H      2.9605      0.0306      6.1172
C      1.0945      5.6622      4.6052
H     12.1984     -6.2677      8.5301
C      7.7888     -7.0227      9.2248
C      4.8799      0.9193      8.3438
O      6.0278      4.3103      5.0860
C      6.5393      7.8490      3.0708
C     10.0042     -3.0913      5.3563
C     12.7869     -6.7572      2.5029
C     -1.6222      6.1527      3.4062
H     16.5826      8.2029     21.1068
H     14.7666      9.3306     11.0208
H     -2.2984      2.1858      4.1136
C      2.9555      0.1556      9.3202
C      0.5998      5.0818      3.3002
C      5.0975      3.6138      2.6287
H     14.2815     -8.9807      7.5772
H      8.1913      7.9618      7.9866
H     10.9973     -0.9804      6.4557
H      7.6502     -2.1944      6.2029
C     14.7379     -6.6329      8.6594
C     -1.5165      5.0603      5.6172
C      3.4667      0.6758      2.1518
C      1.5234      4.3627      5.4715
C     14.4959     -6.8114      7.2192
C     15.5225     -9.0715      0.0860
H     11.7320     -7.2620      0.8015
H      4.4451      1.9564      0.8345
H     10.7076     -1.9510      8.6081
H      1.9475      0.5934     -0.5140
H     -0.6358      1.1196      2.7440
H      9.3673     -3.5806      7.3695
H      6.0341      1.0644      4.7636
C     12.2276     -4.1906      4.9686
C      8.7196     -5.9663      9.8508
H     17.0360      7.2529     15.8069
H     18.9850     10.7779     14.3965
C      9.1435     -1.0162      7.5912
H      9.7176      6.8596      1.8204
H     10.8144     -2.5502      4.9797
H      6.0875      2.1134      9.5084
C     12.2193     -5.9271      7.4223
C      0.5303      3.1927      5.0988
O      9.3667      5.7615      4.1823
C     10.9522     -5.1581      5.5815
C      6.5403      2.5572      7.4569
C      5.5782      2.2617      6.4009
C      3.5747      0.8561      5.8628
H      5.9062      8.0687      8.0298
H      4.8371      3.6508      8.6610
H      8.3218      9.2747      9.4085
H     11.0132     -3.7943      7.2296
C     14.6249     -8.3016      6.8731
H     -2.2869      2.0349      0.8361
C      3.6687      5.4358      4.9490
C      3.7759      2.8800      8.9189
H     20.8468     10.9205     15.0363
C      8.1679      7.9535     10.6908
H      3.3277      5.4827      7.9100
H     10.3478      7.5208     10.6900
H      7.1273      3.4825      7.2066
C      4.1328      2.8605      4.6319
C     17.3379      9.3489     18.6632
C      7.3247      0.0208      8.5774
C      7.5144      8.9236      8.4888
C      5.1881      4.8353      8.2135
C      6.4535      1.5073      8.5774
H     -0.7166      3.1472      8.7677
H     10.1952     -4.4045      9.1590
H      0.1283      3.0953      1.4968
H     18.7801      9.4565     13.2768
H     -0.5960      4.2438      0.4358
C     14.4870     10.1144     13.6463
H      2.9122      4.5540      9.2280
H     10.4542     -3.4296      3.0669
