265

C     19.7100      8.8812     13.7178
C      3.8829      1.1484      7.2141
C      2.3783      3.0197      1.1778
C      7.3192      4.7117      2.3913
C      7.4037      3.2914      2.6693
C      3.5616      4.1724      5.3514
C     -6.0343      9.6008     10.5887
C     15.9920      7.4647     19.3310
C      5.9697      1.7293      3.9446
C     -6.6787      8.6637      9.6591
C     13.7144      8.5443     13.6584
N     -0.0889      2.7866      6.5515
C      0.7241      6.1265      0.6495
O     -1.6987      2.7185      1.6272
C      3.7234      3.7347      6.6475
C     15.4580      6.3248     17.4287
C     16.4492     10.7709     16.8763
H    -11.5068     14.3795      9.6014
H     -3.3376      3.4802      4.8598
H     16.9553      6.3678     14.7087
H     -6.7061     11.5755     11.1474
C     17.0324      9.5266     16.2528
H     -5.6005     10.5527      9.8353
H      7.3640      3.3421      3.7787
H     12.2076      7.1039     10.7458
H     -0.9202      5.5861      6.3100
C      3.3882      2.5752      7.6311
H     -2.6437      9.9567     -0.7484
H      6.5205      0.9697      4.5443
O     14.8312     10.3964     14.7738
C     -4.7184     12.7152      8.7944
C      6.8569      6.2574      9.5015
H      3.2115      7.0107      8.8452
C      6.1608      2.2173      2.6744
H      6.8312      4.7668      7.3544
H     -5.5824      9.3997     11.5589
H     -8.4968     10.2576      7.8104
H     -7.7022      7.0143     10.5040
C     17.7375     10.9116     17.5847
C     -3.1345      8.4837      4.9788
O      1.8251      8.8388      4.7029
C     -1.5958      8.1096      7.0657
C      8.7675      8.0388     12.1632
C     20.3529      7.6494     12.9249
C      6.4598      6.9086     -0.8359
H      5.1098      4.0904      1.5896
H     18.0824     10.2062     14.3300
H      1.8400     -0.8852      2.8892
H     -5.1191      6.8903      7.5197
C      7.1500      6.6930     10.6951
C      7.7929      5.6641      3.2579
H     22.0706      8.8896     14.6973
C     -1.3654      6.8336      5.0855
H     16.0380      8.6959     20.9288
H      4.4742      0.7274      2.1707
H     -7.7204     10.4086     10.1676
H     15.2212      7.1524     13.0834
C     -3.1551     11.4933      7.5501
C      5.8754      5.3285      9.0660
C     15.7974      7.7020     17.6688
C      4.4979      5.9090      0.1321
C     17.8729      9.5468     15.1894
H     -4.1540      8.0757      5.5880
H     -9.2962     14.0013     10.4540
H     -7.0733     12.4933     10.0348
H     18.1575     12.8111     16.9921
C     -0.0341      3.5803      9.0596
C     13.3121      8.0568     12.2828
C      1.9278      1.7434      7.7757
C     -0.5201      6.3387      1.4567
H      5.7365      7.6907     -1.1479
H     -1.9935      2.6362      4.4522
H     -7.3232     10.3856     12.0351
C      9.8211      7.3811     12.9268
O     14.0567     10.9172     12.8822
C     -6.3945      8.7288      8.3262
C     16.6169      8.3857     20.1478
C     -9.1802     14.3431      9.4588
C      2.6406      1.9061      4.2461
H     -0.7763      9.9093     -0.2963
H     -7.0157     12.2174      6.8680
C      3.8512      3.5385      2.8861
H     -4.3517     10.0173      5.5855
C     -2.2087      8.3905      0.4782
C     10.9177      6.8191     11.9639
H     -2.3061      9.7548      7.7562
C      5.0508      2.0725      5.0254
H      4.2473     -0.4141      5.6847
H     -4.4499     13.5334      8.0658
C    -10.2519     12.2260      9.1410
C     -8.0738     11.1496      8.2543
C     -2.3602      5.3462      3.2565
C     16.8642      9.6888     19.4044
C      2.4619      3.6942      2.4481
C     -7.9512      7.9535      9.8665
H    -10.0208     12.2050     10.3082
H     15.5083      8.6846     14.0253
H     -4.1500      5.0384      2.4623
H      1.5782      4.3727     -0.8239
O      5.3732      6.9600      6.5999
C      0.4848      8.1828      4.5685
H     16.7181     10.8738     19.5251
C     -3.0655      8.4436      3.5793
C     -1.9500      7.9111      3.0797
H     -7.2797      8.5511      7.5159
C     -2.5809      7.6569      7.7685
H      1.6795      1.9627      4.6060
H     14.2484      7.7487     10.6146
H      6.6510      1.5694      1.7691
H      0.2318      3.8959     10.0189
C      3.4669      1.8923      0.8086
C     -0.1917      8.4600      2.0126
C     -0.5246      3.2681      1.6086
C     -0.1206      4.0728      4.5116
C     -5.6047     10.9339      7.2351
H      1.6055     -0.1274      4.4101
H     -3.3852      7.1435      7.2466
H     15.9883      9.5657     18.7471
H      0.8854      5.8465     -0.4417
O      0.0190      9.5375      6.1939
C     -6.7564     11.6716      7.7825
C      0.4952      7.4470      6.9018
C     15.0529      7.7988     14.0174
H     14.9028      8.6345     16.0546
C      0.4335      7.6123      3.0617
H     -3.7886     12.2909      9.3549
C      2.8132      1.0080      3.2719
C      0.6450      2.6232      7.9932
C     -2.4270     10.4537      6.8377
C     -2.2765      3.4553      4.9573
C     18.3609     12.0968     17.7758
C     -9.4422     16.6509     10.0429
C      0.5898      2.4949      1.1683
C     -1.3775      7.7147      1.5149
C     -8.9252     12.1051      8.4557
N      1.9761     -0.1880      3.4599
H      3.6192      0.9707     -1.0294
C      2.9389      1.3812     -0.4448
O     17.0798      6.6549     15.6836
C      9.2567      6.4420      1.0488
H     18.9568      9.2424     18.6801
H      0.2440      1.8033      8.4115
C     -3.2085      4.5243      2.6055
C     -2.5338      7.3340      9.3294
H      1.5041      1.4415      6.9140
H      7.7162      4.4762      0.4609
H     -4.8733      8.9794      6.8229
C     -1.7302      9.4811     -0.1392
H     -8.0960      7.5240      8.8029
H      2.0062      8.0174      8.9225
H     -1.1384      9.5487      4.3537
H     15.0644      8.7772     11.6748
H      2.1237      2.1800     -0.4771
H     -1.0729      2.9861      9.0215
C     14.8470      7.5383     15.6319
H      5.0103      5.5508      9.6335
C     14.1797      8.4319     11.2937
C     -7.1122     10.6018     11.0318
H    -10.0319     15.9836     10.9483
H     15.4671     10.9745     17.2691
C      4.3789      8.5690      4.3398
C      7.6909      7.0756      2.8054
C     21.1059      9.5194     14.3333
C     18.7704      8.5514     14.9252
C      4.0129      6.0168      6.4237
C      1.9060      5.1304      2.4190
C      5.9315      5.7005      0.2387
C      5.5638      7.3793      4.3366
C      7.7205      6.6862      1.2921
C      4.2685      4.9715      7.3948
C      1.4953      5.2096      1.0694
H     -2.7961      5.6331      6.3593
C      6.0789      7.1771      5.6997
H      9.5930      5.3504      0.9745
H      1.0399      1.7118      1.8032
C      7.0622      5.3587      1.1240
H     -0.0924      3.0975      4.0325
H     -2.5732      6.0999      9.6875
O      7.3503      7.0334      5.6570
H      9.3138      8.7373     11.5145
H      1.8619      3.5447      3.2070
H      3.2159      4.2359     -0.6092
H      4.7452      5.7040      4.3460
C     12.0633      7.3318     11.7955
C     15.6787      6.3262     15.9586
H      1.5469      6.2603      9.1443
C     -1.4855      4.6885      4.4807
C      0.3054      6.9108      5.3955
H     -8.8641      8.4149     10.4995
H      2.1669      0.1230      6.3138
C      1.2513      5.7971      5.0182
H      2.6417      0.1364      1.5117
H     16.2564     11.7151     16.3169
H     -0.5471      7.6529      8.8707
C     -5.0934      6.8156      8.5889
C     -8.2772     13.5402      8.4819
C      6.3378      7.6729      3.0447
C     -3.1302      9.8333      5.6020
C     -0.2496      6.1154      2.9245
C     -1.5838      6.5790      3.5126
H     17.3253      7.7049     20.6285
H     -2.1190      3.3921      5.9818
C    -10.6819     13.7953      9.0307
C      0.4961      5.0265      3.4301
C      5.0273      3.0906      2.2664
H      1.8921      4.8767      8.2758
H     -3.9223      8.6450      9.7064
H     -2.3789     12.3721      7.7457
H     -5.8839     10.9430      6.1568
C      2.2496      7.1092      8.8805
C     -1.8686      5.5554      5.6735
C      3.5447      0.8588      1.9804
C      1.1290      4.9264      6.1132
C      1.8092      6.8012      7.2857
C      2.3362      4.1769      0.1125
H     -1.3121      5.9027      0.9240
H      4.5782      2.3550      0.9327
H      2.5179      0.1027     -0.3650
H     -1.4009     10.7938      6.4254
H      5.0207      1.2675      3.5794
C     -0.4481      9.0471      5.0602
C     -4.0562      7.4257      9.5819
H      3.8356      5.3042      0.9643
H     21.6326     10.0543     13.4916
C     -4.3678     11.6563      7.8935
H      9.7681      6.7869      1.8021
H     -3.0106     10.6181      4.8619
H     -6.5974     14.2339      9.6968
C     -0.4874      7.7931      7.7898
C      0.4664      3.7681      5.8105
O      8.3568      5.3268      4.4279
C     -1.7008      8.2116      5.7249
C     -6.6092     14.6218      7.4059
C      5.2450      1.6023      6.3225
C      3.2221      0.2053      6.0315
H      7.9985      7.1773      4.8793
H     -6.2446     15.7166      7.5028
H      5.7704      3.8149      8.5211
H     -4.3320      8.8768      8.3483
H      0.0591      8.4495      6.6352
H     19.2284     12.2135     18.2327
H    -10.3999     11.1634      8.8623
C      1.6238      5.2146      7.3370
H     -0.8576      4.2412      1.3026
C      3.7709      5.5163      4.9662
C     -9.2043     15.6998      9.0311
H     20.5984     10.0675     15.1202
C      8.3544      7.3147     10.8540
H      3.9280      5.1775      8.3766
H     10.8486      6.1264     11.2670
H     -5.5114     14.2099      7.3428
C      3.8474      3.0811      4.2985
C     17.8985      9.6270     18.3521
C     -6.3157     12.6200      8.9070
C     -5.1659      9.5958      7.7386
C      5.7040      4.6830      7.7772
C     -6.9527     14.0617      8.7037
H     -0.0699      4.7623      8.8868
H     -1.9987      8.1355      9.9723
H      0.4340      2.0910      0.0929
H     19.4868      9.5350     12.8804
H     -0.5212      1.9818      5.9485
C     14.0965     10.0214     13.8620
H     -9.8418     17.7227      9.6185
H     -2.7039      9.5053      3.3486
