268

C     19.7014      8.7622     13.7080
C      4.0869      1.3265      7.0430
C      2.3843      2.9893      1.0449
C      7.1518      4.7141      2.3807
H     -3.4618      3.4982      2.7743
C      7.1637      3.4732      2.8077
C      3.5729      4.1161      5.3539
C     -5.9276      9.5871     10.7528
C     15.9010      7.3399     19.3574
C      5.8765      1.7395      3.7655
C     -6.8423      8.6476      9.6978
C     13.7418      8.7307     13.7758
N     -0.0049      3.0544      6.7766
C      0.6344      6.1327      0.8201
O     -1.6117      2.6622      1.4077
C      3.5065      3.8415      6.8417
C     15.4574      6.4278     17.4235
C     16.4221     10.6695     16.9140
H    -11.5358     13.6920      9.8355
H     -3.3542      3.1979      4.6367
H     17.1478      6.0619     14.5546
H     -6.5589     11.5788     11.2170
C     17.0369      9.4390     16.2278
H     -5.3172      9.8713      9.9175
H      7.3156      3.9042      3.8121
H     12.5790      7.1885     10.6822
H     -0.7865      5.3029      6.3695
C      3.2299      2.6947      7.7315
H     -2.6379      9.5721     -1.0452
H      6.4481      0.7469      3.9890
O     14.7348     10.6738     14.7738
C     -4.8475     12.8374      8.7390
C      6.8711      6.3378      9.4293
H      3.2408      6.5717      8.9547
C      6.1447      2.4965      2.5503
H      6.5615      5.1918      7.2554
H     -5.4727      9.1426     11.5877
H     -7.9374     10.2076      8.9177
H     -7.9250      6.8364     10.6390
C     17.5938     10.9116     17.6954
C     -2.9878      8.4166      5.0307
O      1.9488      8.9999      4.4892
C     -1.5637      8.0393      6.9754
C      8.6945      8.1094     12.1295
C     20.4103      7.7202     12.9754
C      6.5019      6.8468     -0.7787
H      5.1203      4.1021      1.5773
H     17.7091     10.2995     14.3511
H      1.6966     -0.6345      2.8211
H     -4.7997      6.6774      7.5429
C      7.2368      6.7752     10.7309
C      7.6473      5.6936      3.3222
H     21.4418      8.8045     14.8876
C     -1.1247      6.7638      5.0201
H     16.0677      8.7241     21.1212
H      4.4119      0.3727      1.9287
H     -7.9064     10.3031     10.9571
H     15.2410      7.0208     13.3300
C     -3.2604     11.2960      7.5759
C      5.9199      5.4004      9.0171
C     15.8442      7.7003     17.8898
C      4.5677      5.8245      0.4752
C     18.0198      9.4897     15.1234
H     -3.7474      7.6602      5.1655
H      8.5969      7.6225      3.1374
H     -8.8460     14.2061     10.4414
H     -6.4805     12.1242      9.6753
H     17.9514     12.9412     17.3141
C      0.1884      3.6917      9.0302
C     13.3687      8.1745     12.1898
C      1.9000      1.9685      7.9033
C     -0.6334      6.4153      1.3902
H      5.6100      7.6287     -0.4093
H     -1.7870      2.5777      4.4846
H     -6.8011     10.4694     12.1912
C      9.9293      7.4369     12.8590
O     13.9285     10.6484     12.8077
C     -6.4324      8.9097      8.4081
C     16.4133      8.4075     20.1709
C     -9.4843     14.3970      9.4796
C      2.5129      1.9705      4.3438
H     -1.1459     10.3048      0.4077
H     -7.2237     12.5824      6.9250
C      3.9286      3.5498      3.0238
H     -4.3157     10.0292      5.8559
C     -2.0412      8.5358      0.5544
C     10.8966      6.9158     11.8280
H     -2.2410      9.6204      7.7661
C      5.0115      2.1567      5.1303
H      4.1366     -0.3584      5.5340
H     -4.2467     13.7922      8.8866
C    -10.2413     12.2024      9.1014
C     -8.0970     11.2715      8.3559
C     -2.1355      5.0727      3.4507
C     16.8892      9.6170     19.3660
C      2.5509      3.6622      2.4974
C     -8.0300      7.5499      9.8211
H    -10.1269     12.1570     10.1764
H     16.2330      8.5590     14.3278
H     -4.0077      4.8748      2.1971
H      1.3535      4.2937     -0.6121
O      5.5111      6.8997      6.6912
C      0.5820      8.2849      4.4246
H     17.0169     10.4376     20.0313
C     -2.7728      8.5511      3.5276
C     -1.9567      7.6619      2.9161
H     -6.8789      8.4570      7.5267
C     -2.6376      7.6786      7.8039
H      1.4789      2.1710      4.6378
H     14.3142      8.0408     10.2516
H      6.2713      1.5245      1.7495
H      1.0510      3.4508      9.6844
C      3.3528      1.9122      0.9590
C     -0.0642      8.4371      1.9675
C     -0.5669      3.3603      1.7223
C      0.0170      3.9247      4.3422
C     -5.4799     10.7917      7.3039
H      1.5306     -0.2637      4.5129
H     -3.5332      7.9245      7.3120
H     15.8844     10.1027     18.8282
H      0.5913      6.1052     -0.1693
O      0.0575      9.6815      6.2595
C     -6.9120     11.7072      7.7379
C      0.5739      7.1801      6.9982
C     15.2474      8.0300     14.0790
H     15.3927      8.3955     16.0894
C      0.6302      7.6997      2.9949
H     -4.6382     12.5550      9.7705
C      2.7302      0.9970      3.3764
C      0.3664      2.6445      8.0467
C     -2.3578     10.3445      6.9138
C     -2.1995      3.3688      4.8914
C     18.2974     12.0560     17.8807
C     -9.7167     16.7282      9.7379
C      0.7913      2.6736      1.2907
C     -1.3988      7.7592      1.5759
C     -8.9131     12.2463      8.5077
N      1.9825      0.0021      3.6361
H      3.5782      1.8178     -1.0610
C      2.8964      1.4740     -0.3520
O     16.9937      6.8008     15.5385
C      9.3681      6.5688      0.9456
H     18.7907      9.1631     18.8697
H     -0.2895      1.5361      8.3224
C     -3.0037      4.4767      2.5619
C     -2.5144      7.0953      9.3300
H      1.7694      0.9859      7.5687
H      7.6109      4.4297      0.4895
H     -4.8852      8.7308      6.7729
C     -1.6852      9.5274     -0.3448
H     -8.6920      7.3121      8.9288
H      1.7564      8.0026      8.7719
H     -1.2778      9.7490      4.7932
H     14.7029      9.5202     11.4549
H      2.0453      2.0766     -0.7961
H     -0.6007      3.5198      9.8200
C     14.9907      7.4643     15.5691
H      5.0250      5.2979      9.7590
C     14.2540      8.4394     11.2451
C     -7.0328     10.7161     11.0261
H    -10.2264     16.2447     10.6000
H     15.4074     10.5779     17.5991
C      4.5328      8.4586      4.3013
C      7.6796      6.9518      2.8280
C     20.9989      9.5532     14.3393
C     18.8482      8.5347     14.8625
C      3.8492      6.1043      6.2897
C      1.8981      4.9247      2.6992
C      6.0025      5.7704      0.3361
C      5.6167      7.4935      4.2306
C      7.9415      6.6769      1.1913
C      4.1276      5.0733      7.2956
C      1.4538      5.0958      1.1339
H     -2.4407      5.3972      6.3992
C      6.0512      7.2333      5.5758
H      9.8227      5.7591      1.0412
H      0.7013      1.6206      1.2053
C      7.1161      5.2529      1.0268
H      0.0576      2.9176      3.7441
H     -1.8658      6.2659      9.5476
O      7.4888      7.1054      5.4155
H      8.5834      9.1643     12.0747
H     -0.4094      9.3187      2.4216
H      3.1958      3.9674     -0.6372
H      4.4147      5.4094      3.8611
C     12.1337      7.3477     11.7520
C     15.6390      6.2417     16.0393
H      1.6602      6.5602      9.2464
C     -1.5532      4.5379      4.6208
C      0.3356      6.9757      5.5280
H     -8.9020      8.2513     10.3118
H      2.3907      0.1979      5.5850
C      1.2218      5.8450      5.0260
H      2.9059     -0.0684      1.1657
H     16.0183     11.2474     15.9197
H     -0.2379      8.1291      9.0567
C     -4.8830      6.8119      8.6415
C     -8.4496     13.7362      8.3643
C      6.3629      7.6236      3.0315
C     -3.1344      9.8725      5.6323
C     -0.2079      6.4027      2.9062
C     -1.5922      6.4675      3.5396
H     17.4758      8.2334     20.7811
H      4.0168      6.5721     -0.0171
H     -2.3242      3.0830      5.8471
C    -10.7796     13.8369      9.0593
C      0.5536      5.1653      3.6858
C      4.9593      3.2199      2.1588
H      1.9303      4.6917      8.2366
H     -4.1119      8.4757      9.1698
H     -2.5017     12.0195      8.0181
H     -4.7300     10.7969      6.4399
C      2.2698      7.0931      8.7803
C     -1.6729      5.5580      5.7466
C      3.3708      0.7643      1.8887
C      1.1898      4.9881      6.1111
C      1.9497      6.7945      7.3863
C      2.3253      4.0817      0.0466
H     -1.3349      5.5595      1.1588
H      4.5732      1.8867      0.6263
H      2.6809      0.5643     -0.4241
H     -1.4004     11.1290      6.7665
H      5.0437      1.5370      3.0446
C     -0.5706      9.1199      5.1627
C     -3.9081      7.2805      9.5836
H      3.8560      5.0921      0.7343
H     21.6631     10.1556     13.7323
C     -4.4261     11.5630      8.0972
H      9.8780      6.9612      1.8028
H     -2.7525     10.6646      5.0639
H     -6.4786     14.2742      9.8304
C     -0.2967      7.9960      7.7226
C      0.6227      3.9376      5.7051
O      8.4204      5.2643      4.3285
C     -1.5967      8.0593      5.5414
C     -6.5321     14.5220      7.3390
C      5.3150      1.7911      6.4652
C      3.3342      0.5658      6.0846
H      7.5686      7.3297      4.4984
H     -6.0030     15.4722      7.7344
H      5.3392      3.8121      8.1010
H     -4.5803      9.3707      8.4950
H      0.9176      9.3163      6.3194
H     19.2490     11.6856     18.1289
H    -10.9705     11.4723      8.8147
C      1.5022      5.3627      7.5098
H     -0.7727      4.2700      1.4000
C      3.7827      5.5109      5.0189
C     -9.3359     15.7871      9.0974
H     19.9491      9.7838     15.0618
C      8.4862      7.1439     10.8960
H      3.5701      5.2311      8.3904
H     10.4653      6.1209     10.8575
H     -5.6838     14.0162      6.9584
C      3.8256      2.7306      4.4203
C     17.7670      9.4414     18.3250
C     -6.2789     12.6997      8.7888
C     -5.2124      9.2798      7.6821
C      5.8112      4.7027      7.7303
C     -6.9145     14.0288      8.7319
H      0.6991      4.8970      8.7730
H     -2.2215      8.0957      9.7301
H      0.5281      2.5577      0.1932
H     19.2478      9.3842     12.9397
H     -0.5719      2.4377      6.3100
C     14.2496     10.1426     13.8350
H    -10.7169     17.1627      9.1398
H     -2.6090      9.4570      3.0551
268

C     19.8370      8.8064     13.7362
C      4.1218      1.2307      7.0658
C      2.4104      3.1139      1.0912
C      7.2071      4.7350      2.4128
H     -3.3701      3.5616      2.7130
C      7.3091      3.4874      2.7572
C      3.5169      4.0096      5.2968
C     -6.0760      9.5759     10.6341
C     15.8960      7.4224     19.3405
C      5.8928      1.7855      3.8696
C     -6.7848      8.6593      9.6248
C     13.8122      8.6672     13.8217
N     -0.0562      2.8829      6.7420
C      0.5652      6.1010      0.7754
O     -1.6122      2.6106      1.4370
C      3.5268      3.9632      6.7264
C     15.4668      6.3862     17.3735
C     16.4404     10.6749     16.9251
H    -11.7568     13.5049      9.5997
H     -3.0743      3.0584      4.1601
H     17.5239      6.2031     14.7532
H     -6.6228     11.6177     10.8817
C     17.1318      9.4688     16.2029
H     -5.3975      9.9048      9.9377
H      7.3238      3.7770      3.9890
H     12.5155      7.0429     10.5953
H     -0.9113      5.2771      6.2605
C      3.2056      2.6606      7.5919
H     -2.2203      9.5513     -1.0791
H      6.6600      1.0281      3.9796
O     14.7378     10.6478     14.8875
C     -4.8234     12.8408      8.7145
C      6.8613      6.4097      9.4445
H      3.2032      6.7091      9.1116
C      6.1499      2.4865      2.6692
H      6.5901      4.5991      6.9834
H     -5.6322      8.8064     11.3175
H     -7.9844     10.1929      8.6855
H     -7.8789      6.8264     10.6439
C     17.6970     10.8554     17.7233
C     -3.0723      8.4372      5.0834
O      1.8772      8.9224      4.5630
C     -1.5799      8.0926      7.0588
C      8.6740      8.1198     12.0287
C     20.4331      7.7306     12.9922
C      6.5109      6.9805     -0.7848
H      5.0667      3.5767      1.3257
H     17.5255      9.8925     14.1307
H      1.6556     -0.5051      2.7460
H     -5.1144      6.5629      7.5031
C      7.1744      6.8051     10.7678
C      7.7367      5.6204      3.2875
H     21.5320      8.9649     14.6178
C     -1.2359      6.7143      5.0359
H     15.9486      8.4508     20.9731
H      4.2513      0.3280      1.7959
H     -7.8050     10.0174     10.6107
H     15.4306      7.3300     13.2574
C     -3.1298     11.4422      7.4662
C      5.7977      5.4681      9.0318
C     15.8800      7.6552     17.8556
C      4.5323      5.7964      0.4702
C     18.0214      9.5251     15.1497
H     -3.8938      7.7907      5.0748
H      8.7082      7.5669      3.0466
H     -8.9044     14.2938     10.5150
H     -6.4322     12.2231      9.8047
H     17.9514     12.9524     17.4035
C      0.0627      3.6114      9.0041
C     13.3363      8.0944     12.2044
C      1.9246      1.8844      7.8914
C     -0.6130      6.2987      1.3612
H      5.5362      7.7021     -0.5804
H     -1.4474      2.7101      4.3079
H     -7.2636     10.2077     12.2956
C      9.7787      7.4944     12.7564
O     13.9943     10.6991     12.8335
C     -6.3593      8.8509      8.3533
C     16.3876      8.4484     20.1494
C     -9.3473     14.3619      9.4809
C      2.6217      1.9499      4.4274
H     -0.8337     10.1533     -0.0588
H     -6.7717     12.3660      6.8689
C      3.9423      3.5833      3.0332
H     -4.2754     10.0489      5.5562
C     -2.0494      8.5917      0.6528
C     10.8549      6.9558     11.9512
H     -2.3607      9.6780      7.9398
C      5.0211      2.1894      5.0724
H      3.9206     -0.2179      5.9169
H     -4.4441     13.8777      8.2539
C    -10.2615     12.1497      9.1688
C     -7.9691     11.2391      8.3202
C     -2.1756      5.0533      3.3622
C     16.8065      9.5715     19.3536
C      2.5793      3.6805      2.4829
C     -8.0873      7.6356      9.8154
H     -9.8707     12.3950     10.3502
H     15.9610      8.7465     14.3674
H     -3.9230      4.9294      2.2512
H      1.4911      3.9722     -0.7297
O      5.3822      6.9398      6.7350
C      0.5543      8.1832      4.4687
H     16.8208     10.3801     20.1464
C     -2.8030      8.4807      3.5343
C     -1.9189      7.7883      2.9236
H     -6.9873      8.3567      7.4965
C     -2.6284      7.6686      7.8188
H      1.7523      2.4626      4.8264
H     14.5593      7.9183     10.3761
H      5.9409      1.6310      1.7019
H      0.9010      3.8610      9.8899
C      3.4166      1.8818      0.8613
C      0.0153      8.4670      2.0752
C     -0.5273      3.3818      1.5851
C     -0.0376      3.9322      4.2652
C     -5.5663     10.8828      7.4544
H      1.4906     -0.1850      4.3495
H     -3.6248      7.3506      7.2864
H     15.8769      9.9107     18.8124
H      0.9788      6.0526     -0.0920
O      0.0288      9.6791      6.3086
C     -6.8247     11.7472      7.6898
C      0.5676      7.2647      7.0026
C     15.2461      7.9766     14.0890
H     15.1929      8.5337     15.9785
C      0.7060      7.6208      3.0079
H     -4.9578     12.8573      9.8681
C      2.7518      1.0487      3.2391
C      0.2752      2.5584      7.9903
C     -2.3899     10.2790      6.9245
C     -2.1460      3.3522      4.9518
C     18.3434     11.9712     17.8022
C     -9.6152     16.7514      9.7876
C      0.6373      2.6833      1.1580
C     -1.3274      7.6960      1.5884
C     -8.8373     12.2067      8.6013
N      2.0254     -0.0589      3.6040
H      3.4353      1.7372     -1.3741
C      2.8746      1.3955     -0.3148
O     16.9649      6.6205     15.5745
C      9.2783      6.6961      1.0008
H     18.9958      9.0836     18.5995
H     -0.0669      1.8016      8.5172
C     -3.0354      4.5794      2.5052
C     -2.4630      7.1404      9.3520
H      1.6866      1.2211      7.0177
H      7.3221      4.4167      0.4727
H     -4.9293      8.8369      6.9783
C     -1.6821      9.5471     -0.2192
H     -8.5318      7.5243      8.9146
H      1.7967      7.9274      8.9510
H     -1.2877      9.7261      4.8381
H     14.9189      9.3136     11.3794
H      2.0711      2.0909     -0.5941
H     -1.1519      3.5620      9.4197
C     15.0742      7.5673     15.5150
H      4.9749      5.0956      9.8143
C     14.2775      8.4703     11.3999
C     -7.0557     10.6002     11.0032
H     -9.9176     16.2923     10.8905
H     15.6519     10.3895     17.6399
C      4.4128      8.5669      4.3325
C      7.6192      6.9941      2.9144
C     20.8826      9.6434     14.2336
C     18.9064      8.5011     14.9420
C      3.8954      6.2270      6.2679
C      1.8956      4.9960      2.5813
C      5.8741      5.7144      0.3242
C      5.6647      7.5367      4.1723
C      7.7857      6.7076      1.1966
C      4.2768      4.9781      7.3021
C      1.3815      5.1645      1.2853
H     -2.6685      5.3719      6.1199
C      6.0709      7.1781      5.5713
H      9.7224      5.5881      0.6917
H      0.4524      1.5282      1.3949
C      7.1019      5.2459      1.0102
H      0.2613      2.8958      3.9056
H     -1.9720      6.0725      9.7726
O      7.5302      7.0394      5.3835
H      8.3406      9.0861     11.9864
H      1.7620      3.2863      3.1212
H     -0.1765      9.2852      2.5277
H      3.2015      4.1623     -0.5585
H      4.5496      5.6356      4.3640
C     12.1433      7.2960     11.6425
C     15.6368      6.3334     15.9535
H      1.4587      6.3877      9.2154
C     -1.5920      4.6158      4.5576
C      0.3552      7.0970      5.5519
H     -8.5145      8.3987     10.3764
H      2.4601     -0.2530      5.8079
C      1.2030      5.9339      5.0566
H      2.7696      0.2148      1.1769
H     16.0763     11.3935     16.1931
H     -0.1610      7.8555      9.0627
C     -4.9132      6.7845      8.6089
C     -8.2916     13.6706      8.4126
C      6.3673      7.6260      2.8950
C     -3.2207      9.8314      5.5179
C     -0.1351      6.3448      3.0140
C     -1.5501      6.5192      3.4389
H     17.1925      7.9804     20.7050
H     -2.0619      3.0535      5.9735
C    -10.7641     13.7568      9.0309
C      0.7616      5.2326      3.6258
C      4.9746      3.1893      2.1981
H      2.1009      4.6722      7.9721
H     -4.3408      8.3229      9.2892
H     -2.6110     12.2172      7.9934
H     -5.2860     10.6081      6.3057
C      2.1668      7.0276      8.8545
C     -1.7604      5.5598      5.7173
C      3.3180      0.7282      1.9295
C      1.1777      5.0280      6.1462
C      1.8608      6.7717      7.3827
C      2.3344      4.0771     -0.0176
H     -1.5662      5.4513      1.3173
H      4.6162      2.2033      0.6579
H      2.6246      0.4618     -0.2428
H     -1.2877     10.6514      6.5031
H      5.2015      1.4294      3.1113
C     -0.4956      8.9771      5.1352
C     -3.8712      7.3293      9.5236
H      3.6208      5.0643      0.7614
H     21.4810     10.0526     13.5131
C     -4.3942     11.5517      7.9447
H      9.9029      6.7563      1.8546
H     -3.0744     10.4137      4.7270
H     -6.5537     14.1623      9.7644
C     -0.3284      7.8941      7.8079
C      0.6131      3.7089      5.6701
O      8.4907      5.2430      4.3629
C     -1.5621      8.0954      5.6082
C     -6.4474     14.5871      7.4506
C      5.2639      1.8163      6.4136
C      3.3248      0.6165      6.0282
H      7.6592      7.4852      4.5270
H     -5.9118     15.5245      7.3833
H      5.4805      3.7364      8.1474
H     -4.1552      9.4922      8.2707
H      0.7707      8.9656      6.3017
H     19.2465     12.0302     18.4083
H    -11.3266     11.4251      8.7433
C      1.5337      5.3609      7.4010
H     -0.4408      4.6132      1.5035
C      3.6354      5.5035      5.0411
C     -9.2721     15.6480      8.9928
H     20.6447      9.9513     15.2821
C      8.3582      7.3626     10.7736
H      3.7209      5.1585      8.5303
H     10.2908      6.3956     11.1434
H     -5.4660     13.8228      7.0373
C      3.7312      2.6886      4.4157
C     17.8567      9.4643     18.3089
C     -6.2800     12.5446      8.8561
C     -5.1405      9.3921      7.7795
C      5.6612      4.7810      7.7242
C     -6.8518     13.9964      8.7335
H      0.4527      4.4559      8.6724
H     -2.0106      7.9204      9.8738
H      0.1296      2.5813      0.1445
H     19.2321      9.2158     12.9775
H     -0.5996      2.3569      6.1211
C     14.2206     10.1502     13.7979
H    -10.5205     17.0184      9.3522
H     -2.7083      9.6160      3.1235
