262

C     19.8001      8.9771     13.9304
C      3.7729      1.4801      6.9090
C      2.1713      2.8926      1.2265
C      7.2003      4.7542      2.5022
H     -3.4809      3.8119      2.6228
C      7.3185      3.4656      3.2111
C      3.7027      3.6939      5.3975
C     -6.3661      9.7163     10.2598
C     16.0458      7.1550     19.6941
C      6.0034      1.5803      3.5279
C     -7.1641      8.7612      9.4982
C     13.7576      8.6304     13.6067
N     -0.3159      2.9687      6.4253
C      0.5713      5.9623      0.6150
O     -1.6137      3.0243      1.8983
C      3.4609      3.8245      6.6760
C     15.6188      6.1300     17.5606
C     16.3796     10.3451     17.1363
H    -11.4528     14.0949      9.8573
H     -3.7194      3.2107      5.0686
H     -6.8075     10.8406     12.1433
C     16.9172      9.2144     16.3553
H     -8.8804      8.4556     10.8380
H     -5.5320     10.3985      9.5138
H      8.2594      3.3400      3.7523
H     13.0740      7.1791     10.7346
H     -1.5638      5.3802      6.8235
C      2.9310      2.7210      7.3578
H     -1.8252     10.3664     -0.6325
H      6.8812      0.9368      3.1713
O     15.2182     10.6448     15.0018
C     -4.7229     12.8346      8.8887
C      6.8347      6.3154      9.7576
H      2.3408     -0.2822      5.9144
H      2.6340      6.4333      9.0759
C      6.2142      2.7782      2.7462
H      6.6186      5.0151      7.5457
H     -5.7126      8.9467     10.7030
H     -8.6052      7.1301      9.5555
C     17.6147     10.5636     17.9301
C     -2.8391      8.7298      5.1154
O      1.8955      8.6654      4.9909
C     -1.4402      7.8921      7.0806
C      8.6294      8.3414     12.1832
C     20.4077      7.8291     13.3065
C      6.3886      6.9554     -0.6853
H      4.8860      4.2198      1.6955
H     17.7820     10.5565     14.7032
H      1.4507     -1.0318      3.1689
H     -5.1241      6.3492      7.9228
H     15.4979     11.5493     14.7107
C      7.1468      6.7265     11.0475
C      7.8688      5.7430      3.2316
H     21.8634      8.8136     14.8127
C     -1.1546      6.4751      5.0854
H     15.5003      8.5969     21.1978
H      3.7650     -0.5857      1.8882
H     -7.5918     11.7641     10.8326
H     15.3407      7.0247     13.5525
C     -2.8055     11.2669      7.8776
C      5.5076      5.7683      9.3770
C     15.8499      7.5467     18.1851
C      4.6365      5.8815      0.7589
C     17.7386      9.7096     15.3899
H     -3.6819      7.7308      5.3597
H      8.9298      7.4560      3.2467
H     -9.7368     14.7479     10.3649
H     -6.1933     12.2709      9.9930
H     17.6573     12.3496     16.4886
C      0.0346      3.9084      8.8877
C     13.4727      8.5095     12.1401
C      1.4691      1.8971      7.5625
C     -0.5159      6.4410      1.5702
H      5.4668      7.9117     -0.8130
H     -2.3849      2.6551      3.8728
H     -8.0246      9.9829     10.9415
C     10.0631      7.6573     12.7079
O     15.0391     10.8682     12.7939
C     -6.7499      8.4136      8.1246
C     16.4911      8.1855     20.5978
C     -9.7779     14.4857      9.3358
C      3.1436      1.1507      4.6218
H     -0.7941     10.1400      0.4335
H     -6.6508     12.4757      6.9105
H    -10.0576     16.8782     10.8336
C      3.7759      3.0040      3.1066
H     -3.6630      9.1411      6.5179
C     -2.1692      8.5765      0.6288
C     11.2183      7.1297     11.7670
H     -1.5522      9.5466      7.2698
C      5.3678      2.0561      5.0463
H      3.9001     -0.4281      5.4703
H     -4.4066     13.7927      9.0474
C    -10.6009     12.4995      8.6854
C     -8.2728     11.3981      8.1308
C     -2.1932      5.2935      3.5867
C     16.6988      9.3692     19.6922
C      2.3477      3.2055      2.6849
C     -8.2735      7.9870     10.0678
H     15.5418      8.7597     14.0079
H     -2.6262      4.4690      1.4044
H      2.0559      4.1986     -0.5114
O      5.4681      6.6792      6.4005
C      0.6550      8.0841      4.5101
H     -8.0771     10.9484      7.0402
C     -2.7284      8.6110      3.4878
C     -1.7448      7.8043      2.8544
H     -7.5956      8.8277      7.5615
C     -2.5366      7.5381      7.8431
H     13.7148      8.7076     10.2643
H      6.6855      2.5602      1.7338
C      3.0038      1.7835      1.0168
C     -0.0629      8.4872      1.9123
C     -0.5780      3.2720      1.3991
C     -0.1165      3.7517      4.2454
C     -5.5634     10.8723      7.1764
H      1.0357     -0.1816      4.6450
H     -3.7935      7.5448      7.5567
H     16.0612     10.2232     19.9217
H      0.8897      6.2191     -0.4449
O      0.1560     10.0116      5.7993
C     -6.7554     11.6978      7.8968
C      0.7809      7.2155      6.7128
C     14.9738      7.9291     14.0746
H     15.9149      8.1446     15.5381
C      0.8048      7.6223      2.9915
H     -4.4098     12.1894      9.7886
C      2.6687      0.3772      3.4229
C      0.0534      2.8116      7.7239
C     -2.0509     10.4872      6.8348
C     -2.6854      3.2295      4.8813
C     17.9592     11.8721     17.3703
C     -9.6116     16.9245      9.8412
C      0.6485      2.5489      0.9268
C     -1.2998      7.6873      1.5227
C     -9.2557     12.4896      8.6639
N      1.4788     -0.0123      3.6113
H      4.1127      1.3177     -0.7086
C      2.9441      1.3392     -0.3044
O     16.9604      6.0700     15.6713
C      9.5418      6.3896      0.5956
H     18.8881      9.2670     18.8209
H     -0.4338      2.0794      8.2311
C     -2.8630      4.6775      2.4609
C     -2.7128      7.8317      9.2461
H      1.5029      1.2887      6.6953
H      7.6001      4.5933      0.3588
H     -5.3828      8.5364      6.3599
C     -1.4908      9.6654      0.0834
H      5.1714      6.5082      8.5921
H      1.5461      7.7198      9.0480
H      7.6629      5.4625      5.6042
H     -1.3430      9.8164      4.2144
H     15.4334      9.3553     11.6217
H      2.2510      1.7751     -0.9626
H     -0.4013      3.7111      9.9594
C     14.9957      7.3628     15.4105
H      4.8957      5.6457     10.3852
C     14.4276      8.7492     11.1948
C     -7.2905     10.7866     11.0938
H     15.3335     10.7829     17.4160
C      4.1600      8.2186      4.3401
C      7.8169      7.1175      2.7799
C     21.0853      9.7071     14.3787
C     18.8159      8.8634     14.9800
C      4.2753      5.8952      6.3287
C      1.6969      4.8500      2.6998
C      5.9390      6.0491      0.3199
C      5.5214      7.4957      4.1642
C      7.9445      6.5839      1.1805
C      4.5030      4.8168      7.5641
C      1.5139      5.2871      1.2186
H     -2.8743      5.6758      5.9052
C      6.2742      6.9266      5.3154
H      9.8161      5.9590     -0.3249
H      0.9084      1.6434      1.3695
C      7.0364      5.2120      0.9675
H     -0.1878      3.0159      3.3930
O      7.4724      6.6314      5.6349
H      8.9224      9.6271     12.0448
H      1.6906      2.3240      3.3699
H     -0.5161      9.6961      1.9159
H      4.4821      5.2327      4.2638
C     12.4348      7.8595     11.4473
C     15.4877      6.0334     15.8892
H      0.7004      6.1046      9.2669
C     -1.6826      4.3244      4.4608
C      0.3072      6.8338      5.2120
H     17.0223      7.6893     21.4041
H      2.2231      1.7611      4.5419
C      1.2275      5.6572      4.8839
H      1.8823     -0.3332      1.5100
H     16.3711     11.3923     16.5456
H     -0.5324      7.7596      8.6923
C     -4.9624      6.8053      8.9318
C     -8.5925     13.7617      8.7314
C      6.3633      7.9416      3.0386
C     -3.0715      9.9111      6.0210
C      0.0485      6.2556      3.0264
C     -1.5417      6.5164      3.6811
H      4.2692      7.0163      0.7866
H     -2.3268      2.8784      5.7978
C    -11.0247     14.0881      8.8883
C      0.6569      4.9516      3.7134
C      4.9113      3.3462      2.4398
H      1.8421      4.3835      7.9691
H     -6.2581      7.5236      8.1332
H     -2.3299     12.0353      8.4104
H     -5.1799     11.3739      6.2986
C      1.6058      6.7089      8.9810
C     -1.8244      5.4382      5.7726
C      2.9332      0.1085      1.9553
C      0.9186      4.7453      5.9923
C      2.0018      6.5685      7.3594
C      2.3757      4.2120      0.5672
H     -1.3903      5.5681      1.6143
H      4.0796      2.0139      1.0452
H     -1.2290     10.9688      6.5350
H      4.8815      1.3447      3.0624
C     -0.6643      8.9539      4.8111
C     -3.9615      7.5306      9.6320
H      4.0668      5.1584      1.4513
H     21.5170      9.8509     13.2714
C     -4.1114     11.6994      8.1189
H     10.0641      6.5199      1.5262
H     -3.6969     10.8588      5.5510
H     -6.5519     14.3390      9.8148
C     -0.2150      7.4271      7.6345
C      0.7358      3.4974      5.5323
O      8.6725      5.3109      4.1890
C     -1.6370      7.9579      5.4955
C     -6.7070     14.6122      7.5070
C      5.2835      1.5219      6.4650
C      3.1801      0.6040      5.8148
H      9.1497      6.2992      4.4036
H     -6.0600     15.6041      7.2838
H      5.8957      3.5392      8.5696
H     -4.8488      9.3598      8.2351
H      0.1087      9.8906      6.8353
H     18.6866     12.6418     17.8446
C      1.8420      4.9677      6.9731
H     -0.4053      4.4898      0.9922
C      3.9096      5.2641      5.0679
C     -9.9857     15.8159      8.9776
H     20.4112     10.2450     15.1701
C      8.1881      7.6165     10.8905
H      3.7480      5.1522      8.2314
H     -5.7420     14.0145      7.0009
C      3.9937      2.3803      4.5220
C     17.8088      9.6607     18.9482
C     -6.2990     12.6221      8.9316
C     -5.5584      9.2679      7.3383
C      5.8333      4.6467      8.1323
C     -7.0244     13.8483      8.8787
H     -0.7638      4.7201      8.7428
H     -2.0736      7.6812     10.0819
H      0.3559      2.3339     -0.0651
H     19.3420      9.8029     13.3204
H     -0.9143      1.9930      5.9664
C     14.5126     10.0442     13.6211
H     -9.6811     18.0838      9.6426
H     -2.1951      9.3068      2.8025
