260

C     19.8987      8.6543     13.6597
N      9.9850     10.2986     14.5726
C      4.1598      1.7236      7.0666
C      2.4762      2.4982      2.3817
C      7.7575      5.1245      2.3663
H     -2.9421      6.8673      2.3791
C      7.9462      3.5463      3.0185
C      3.5120      3.9267      5.1620
C     16.2767      7.0240     19.7026
C      6.3717      2.0112      3.9358
C     -7.3031      8.3770      9.1584
C     13.6024      8.7803     13.9298
N      0.3771      2.6248      6.1890
C      0.6627      6.3343      0.5582
O     -1.2296      2.2959      1.0557
C      3.3945      3.9588      6.9080
H     13.4671      7.2163     11.1118
C     15.6273      6.2599     17.2742
C     16.3807     10.1385     16.2988
H    -11.3533     13.9686     10.0289
H     -3.2529      3.0716      5.0244
H     16.6037      7.0488     14.3074
C     17.0470      8.9516     15.9508
H     -8.9334      7.4133     10.1452
H     -8.3186     10.6294      9.5227
H     -1.2043      5.3979      6.9011
H     -6.1900     14.7101      9.1647
C      3.4988      2.7797      7.8098
H      7.3336      1.4179      4.0959
O     13.9856     10.5409     15.5132
C     -4.6265     12.7971      8.5809
C      6.1294      6.2432      9.8273
H      3.3656     -0.3372      6.2838
H      4.1697      4.9080      8.5204
C      6.6878      2.9585      2.8809
H      6.0349      3.3058      7.7838
H     -8.3824     12.4995      9.7555
H      2.8449      5.9887      9.2846
C     16.8684     10.8957     17.3771
C     -3.0085      8.4197      4.9718
O      1.8144      8.5433      4.9320
C     -1.4335      8.0242      7.0887
C      8.9561      7.7865     11.7836
C     20.5000      7.5630     12.8125
C      6.3875      6.8620     -0.6904
H      5.5541      4.7636      1.9418
H     17.3707      9.8275     13.8986
H      1.5362     -1.0068      6.0654
H     -5.2720      6.1474      8.7980
C      7.6188      2.6993      9.0259
H      0.9165      1.4430      0.9830
C      7.0661      6.6067     10.8768
C      7.9026      5.8097      3.4922
H      8.5900      7.3167      2.6123
C     -1.1629      6.7791      5.0826
H     16.0447      8.5621     20.8998
H     16.2217     10.6683     15.4003
H      2.6834      5.7228      0.3119
C     -2.9448     11.5225      7.1352
C      6.4114      4.9728      9.0199
C     15.7629      7.6145     17.9910
C      4.7468      5.3269     -0.3374
C     17.7916      8.9414     14.7484
H     -3.5450      7.3438      5.5258
H      7.8188      7.9789      4.0448
H     -8.7997     14.0878     10.5159
C     -0.2384      3.2463      8.3512
H     19.4823     10.3937     14.7509
C     12.3874      8.8328     12.8790
C      2.0932      2.0966      8.0920
H     10.8636      6.3914     10.8242
C     -0.5161      6.1399      1.5147
H      5.4546      7.3482     -0.9805
H     19.3386      9.1376     12.8697
C     10.1838      7.3231     12.4383
O     15.1087     10.6880     13.4610
C     -5.7594      8.4331      8.6261
C     16.7685      8.4562     20.2199
C     -9.1721     14.3632      9.4946
C      2.5870      1.2764      5.3631
H     10.9949     10.1299     14.5920
H     -7.3424     12.1869      7.1684
H    -10.5833     17.0481      8.9344
C      4.2947      3.5908      2.8870
H     -3.2571      8.7290      6.8833
C     11.0087      8.3680     13.2907
C     11.2774      6.8140     11.6058
H     -2.5563     11.3819      5.0753
C      5.2555      2.2336      5.0163
H     16.7452     13.1135     17.4330
C    -10.4045     12.3897      8.5554
C     -8.0064     11.0634      8.5563
C     -2.1463      4.9168      3.7687
C     16.5716      9.7419     19.4969
C      2.8994      3.7762      2.5526
C     -7.9743      7.0136      9.5713
H    -11.2335     11.8639      9.1934
H     15.4336      7.8452     13.2526
H      9.2877      4.8127      3.9881
H      0.5984      3.7303      0.3083
O      5.6377      6.7743      6.5505
C      0.6809      7.9723      4.5736
H     -8.4010     10.5016      7.7263
C     -2.9472      8.7038      3.5685
C     -2.2280      7.5581      2.8192
H     -4.8771      9.0742      9.1299
H      8.7910      3.4279      3.5523
C     -2.4359      8.6408      7.8929
H      2.7295      4.2190      4.4637
H     12.5033     10.1383     11.1664
H      4.1711      3.4669     -0.5296
H      0.1607      4.2817      8.9266
C      3.1978      1.2107      2.4285
C     -0.3111      8.6176      2.1177
O      4.2790      4.0255      0.2763
O      7.6794      4.2339     10.9194
C     -0.2461      2.9251      1.5149
C      0.4958      3.3464      3.8706
C     -5.5846     10.6968      7.4533
H     -1.9306      9.6803      7.7090
H     15.5994      9.8950     19.5679
H     -0.6040      9.6110      4.1902
H     12.6575      8.6290     10.8523
O      0.0740      9.5819      6.1809
C     -6.7828     11.5858      7.9744
C      0.7317      6.7102      6.6802
C     14.5916      7.5943     13.8192
H     15.5296      8.3913     15.6594
C      0.4520      7.5525      2.9520
H     -4.6252     13.8625      8.9625
C      2.0418      0.2041      4.5518
C      0.7979      2.6378      7.4127
C     -2.5558     10.7681      5.9940
C     -2.6431      3.4338      5.8342
C     17.5204     12.3042     17.3896
C    -10.0828     16.7379      9.9636
C      1.2469      2.2923      1.6032
C     -1.3903      7.6136      1.6318
C     -8.8623     12.2922      8.8325
N      1.5923     -1.0440      4.8998
C      3.5719      1.3056      1.0220
O     16.8494      6.5529     15.2792
C      9.6498      6.5276      0.6875
H     18.1187     11.1509     19.0456
C     -2.2924      3.8494      3.0652
C     -2.7010      8.0572      9.2198
H      2.0791      1.3077      7.2296
H      7.7776      3.3149     11.4071
H     -4.9141      8.8600      6.9041
C      9.9497      9.2073     13.9631
H     -8.3783      6.6120      8.5865
H      2.2295      7.4932      9.1366
H     -3.2074      3.9525      6.5439
H     -0.7344      9.7094      2.4951
H      3.6146      2.2861      0.5626
H     -0.6320      2.7053      9.0285
C     14.8182      7.4057     15.3403
H      4.2948      0.4578      0.9923
C     13.0767      9.7258     11.9023
H      1.0690     -1.9275      4.6053
C      4.2493      8.0182      4.2848
C      7.5605      7.1515      3.4578
C     20.2462      9.8742     14.4486
C     18.8726      8.0243     14.5943
C      4.4639      6.0617      6.3525
C      2.1087      5.0619      2.3092
C      6.1173      5.7669      0.2038
C      5.5518      7.3998      4.1831
C      8.2586      6.5405      0.6976
H     13.6922     10.5640     12.3648
C      4.5480      4.8780      7.4668
C      1.7361      5.2956      0.8059
H     -2.5345      6.5173      6.3914
C      6.5506      6.8908      5.5019
H      1.8664      2.0568      5.2721
H     -2.6387      4.1567      1.8187
H      1.7177      2.7854      0.7071
C      7.2938      5.5766      1.0085
H     -0.5331      3.3020      3.8969
O      7.7093      6.9932      5.9183
H     21.0210      9.6932     15.2979
H      0.7155      2.7316      3.1099
H      1.0391      4.9156     -0.9562
H      8.7816      2.3062      9.4630
H      4.5869      5.7791      3.8785
C     12.5479      7.7140     11.4979
C     15.6677      6.3645     15.8454
H      0.9875      6.4420      9.0157
C     -1.8595      4.5976      5.1509
C      0.3696      6.5238      5.1475
H      3.2487      2.2856      3.9591
C      1.4654      5.5067      4.5326
H    -10.2665     12.5116      7.3767
H      2.0680     -0.3522      2.3678
H      0.3283      7.1404      8.1848
C     -4.9172      7.1392      8.2903
C     -8.2614     13.7101      8.5215
C      6.0944      7.5194      2.9688
C     -3.4083      9.6560      5.5418
C     -0.3013      6.1065      3.0509
C     -1.5362      6.2788      3.6767
H      2.5408      3.9731     -0.2551
H      4.9490      5.4730     -1.5156
H     -1.9372      2.7296      6.3255
C    -10.7754     14.1729      9.1378
H     -1.5045     10.2184      5.9708
C      0.7469      4.8416      3.2761
C      5.4310      3.9037      2.4732
H     -1.0569      3.5957      7.6376
H     -6.9459      8.8969      6.7680
C      7.1261      3.9643      9.4389
H     -2.6917     12.6124      6.8040
C      2.0246      6.6508      8.6588
C     -1.7540      5.8750      6.0411
C      2.4635      0.3634      3.1484
C      1.4468      4.5967      5.6986
C      2.0766      6.2519      7.1837
C      1.4278      4.1357     -0.1908
H      4.2214      1.8807      2.5013
H      2.6903      0.8232      0.5717
H     -4.0908      7.5762      7.4995
H      6.2593      0.9268      3.3789
C     -0.2741      8.9802      5.0842
C     -3.8245      7.3965      9.3061
H      3.9757      6.1165     -0.2657
H     -3.8884      9.0613      3.2355
C     -4.2994     11.6668      7.8512
H     -2.2200      2.7576      3.4514
H     -4.4043      9.9892      5.1512
C     -0.0553      7.6021      7.4496
C      0.8971      3.3889      5.2217
O      8.6198      5.3851      4.5164
C     -1.4273      8.0736      5.4414
C     -6.4840     14.3373      6.9604
C      5.4674      1.8573      6.2527
C      3.2091      0.8018      6.4265
H     -5.6112     13.7380      6.8397
H     -7.9481     16.3795      9.4022
H     -6.4325     12.7087     10.0507
H      1.0563      9.8683      6.0582
C      1.9784      4.6565      7.1837
H     -0.3190      3.8871      2.0352
C      4.0187      5.4304      4.8912
C     -8.9596     15.9122      9.2494
H     20.5760     10.8218     13.8084
H      0.3939      6.2702     -0.4337
C      8.5490      6.9671     10.6149
H    -10.9316     16.0133     10.4922
H     12.0482      6.0623     12.1715
C      4.1971      2.8403      4.2791
C     17.4475     10.2582     18.5735
C     -6.0409     12.5922      9.1039
C     -5.8539      9.3113      7.2644
C      5.9734      4.4184      7.5606
C     -6.6994     13.8965      8.3379
H     -0.9510      4.1741      5.5084
H      9.0050      8.8339     13.9462
H      9.9620      5.3838      0.9785
C     14.5299      9.9678     14.2424
H    -10.0443     17.5596     10.6053
