265

C     -5.8619      9.1345      0.9532
N     -2.2374     10.7993      1.2494
C      4.0826      1.6038      6.9740
C      1.9962      2.6379      1.8079
C      7.5916      5.2256      2.4225
H     -2.9200      6.8656      2.3068
C      7.2688      3.9893      3.2129
C      3.2547      3.9269      5.5132
C      3.1936      7.0940      6.5832
C      6.1040      2.0336      3.6945
C     -7.0892      8.0722      9.8614
C      1.0553      8.7716      0.9345
N     -0.0892      2.6015      6.4012
C      0.3439      6.1198      0.5386
O     -1.4891      2.3667      1.2244
C      3.1133      3.9386      6.9222
C      2.3775      6.0363      4.5556
C      3.3425     10.2492      3.6217
H      1.2285      1.0111      9.6860
H     -3.7462      3.7274      5.4342
H      4.5724      6.6795      1.8893
C      3.9630      8.7858      3.4590
H     -9.1568      7.2478     10.4826
H     -7.2231      8.9879     10.8508
H      7.6996      3.4801      4.2131
H      0.0079      6.8301     -1.6663
H     -1.2020      5.3245      6.6794
H     -3.9908      3.3342      9.7147
C      2.8019      2.5879      7.6136
H      7.2733      1.7460      3.9055
O      1.0874     10.9336      1.7720
C     -4.8798     12.6145      8.6728
C     -5.5725      5.9044      9.6056
H      2.4002      0.2350      6.4977
H      2.3325      6.5966      9.8326
C      6.1290      3.2692      3.0280
H     -6.8703      4.2944      7.0770
H     -8.2655     10.9963      9.6894
H     -8.2427      6.7659      8.8681
C      4.3183     10.9525      4.6113
C     -2.9244      8.5028      5.1885
O      1.7986      8.7072      4.7939
C     -1.4710      7.8514      6.9026
C     -4.1833      8.3076     -1.0498
C     -5.3788      8.0210      0.0576
C     -6.2696      6.9699     12.1442
H      4.3036      4.2822      1.9118
H      3.6822      9.6899      1.3982
H     -5.1372      6.8731      7.4959
C     -4.9471      3.3298      9.6099
C     -5.3714      6.5247     10.9379
C      8.2841      6.1537      3.1040
H     -3.9705      6.7150     14.7872
C     -1.1505      6.8183      5.0520
H      3.6977      8.1410      8.4514
H      2.3645     -0.5305      2.1705
H      2.0665      6.8660      0.3233
C     -3.1906     11.9063      6.9102
C     -6.6555      4.9214      9.3352
O     -7.3229      2.8427     10.6496
C      2.9659      7.5194      5.2012
C     -8.2667      5.7285     12.8138
C      4.3793      8.9400      2.0737
H     -3.5455      7.6841      5.3136
H      7.8109      8.2887      4.3040
H      3.8414      1.3413     10.6738
H      4.9514     12.9804      3.5579
C      0.2642      3.2999      8.8650
C      0.5007      8.5453     -0.4885
C      1.5330      1.6341      7.7982
H     -2.1039      8.3524      9.7547
C     -0.7436      6.2589      1.2653
H     -7.2181      7.4301     11.8484
C     -2.8606      7.7377     -0.3764
O      2.6722     10.2463      0.2974
C     -6.6951      8.5369      8.5638
C      3.7656      8.1557      7.2916
C      3.4878      1.4575      9.4066
C      2.9459      1.4385      4.7705
H     -2.2515     10.1579      2.0607
H     -2.0704      9.9908     -0.8866
H     -7.5523     12.1535      6.9099
H      3.3443      3.9607     10.9420
C      3.8854      3.2145      3.1876
H     -4.2029      9.5798      6.7484
C     -2.2695      8.4601      0.7020
C     -1.7969      7.2412     -1.3753
H     -1.5230     11.1911      6.1057
C      5.1034      2.3787      5.0819
H      4.0477     -0.0373      5.5556
H     -1.5371      2.9161      0.3426
C    -10.6397     12.4803      8.4614
C     -8.2179     11.0066      8.5812
C     -2.2256      5.0670      3.4303
C      3.4833      9.4855      6.6937
C      2.4213      3.5463      2.9639
C     -8.1166      7.0891      9.7813
H      2.9975      8.1915      0.8799
H      9.5076      5.1413      3.4661
H      2.0464      4.7849     -1.0348
O      5.7093      6.4742      6.8333
C      0.4784      8.0408      4.2376
H     -8.5325      9.7597      8.5345
C     -3.2188      8.4918      3.6809
C     -2.4278      7.3850      2.9586
H     -7.2071      7.6075      8.0546
C     -2.6893      7.9645      7.6658
H      2.2334      3.5969      5.1086
H      0.1893      8.6143     -2.2471
H     -7.9768      4.3457     11.5786
H      0.0347      4.3207      8.5157
C      3.1213      1.5356      1.4384
C     -0.0392      8.4636      1.7593
O     -8.2447      4.1698     12.5063
O     -5.9302      4.2507     11.7374
C     -0.5190      3.0804      1.8401
C     -0.4978      3.6958      4.1923
C     -5.7805     10.7026      7.4938
H     -3.6869      7.6297      7.2926
H      2.6837     10.4749      7.0092
H      0.4344      6.1630     -0.4121
O     -0.0521      9.8257      6.0411
C     -7.0012     11.6378      7.9676
C      0.7055      7.4400      6.7442
C      2.0327      7.6032      1.0916
H      2.5784      8.3072      3.0508
C      0.5763      7.5642      2.8242
C      2.5007      0.3990      3.7953
C      0.1440      2.2412      7.7944
C     -2.7114     11.0127      6.2580
C     -2.7741      3.4956      5.6497
C      4.9638     12.6140      4.7819
C      3.4643      3.9870      9.8039
C      0.8269      2.6465      1.1582
C     -1.3288      7.7970      1.5620
C     -9.3074     12.2305      8.3163
N      2.0127     -0.6861      4.2848
C      3.6272      1.8684      0.0487
O      4.0040      6.1799      2.4245
C     -3.4340      6.3196     12.9563
H      5.6650      9.7724      5.5886
H     -0.7797      1.6923      7.9948
C     -2.6653      4.9990      2.1955
C     -2.7443      7.9875      8.9809
H     -4.9948      3.8722      8.5691
H      1.4686      0.9774      6.7928
H     -5.6437      5.4168     11.2466
H     -4.6475      9.7348      8.9624
C     -2.2713      9.8635      0.3427
H     -7.5818      6.0094     10.1631
H      1.1698      7.5897      9.1085
H     -1.1156      9.5932      3.9919
H      1.2808     10.2264     -2.1747
H      3.1090      1.0721     -0.3750
H      1.0969      3.5808      9.6331
C      2.1482      7.5253      2.4563
H      3.1727      2.7185     -0.2833
C      0.8724      9.2331     -1.5914
H     -7.4022      2.1971     11.4183
H      2.4679     10.5725      4.3159
C      4.2623      7.9363      4.5785
C      7.5266      7.3430      3.5795
C     -4.6750      9.7095      1.3683
C      5.7328      8.1651      2.0289
C      4.3782      5.9629      6.3275
C      1.7432      4.9638      2.7077
C     -6.7320      5.9803     13.0751
C      5.3312      7.1689      4.3657
C     -4.7284      6.6986     13.8970
C      3.9643      4.9719      7.4694
C      1.1261      5.0337      1.0683
H     -2.8765      5.8038      6.0774
C      6.2666      6.5900      5.4363
H     -2.6053      5.7270     12.9241
H      0.6063      2.1735     -0.0390
C     -5.8763      5.6432     14.1503
O      7.5641      7.1838      5.7831
H     -4.2995      9.5409     -1.1551
H     -4.2948     10.2589      2.4234
H      1.7116      3.4460      3.9418
H     -0.0416      9.3948      2.5080
H      2.9498      3.9377      0.1679
H      4.5169      5.4055      4.3458
C     -0.3689      7.5236     -0.7924
H      6.8167      5.6033      5.3973
C      2.6683      6.1057      2.9614
H      1.1307      6.0935      8.3227
C     -1.8258      4.2932      4.6734
C      0.3433      6.9547      5.2136
H      4.7808      8.1654      6.9382
H      2.0328      1.7689      5.0053
C      0.9704      5.6540      4.7637
H    -11.0521     11.5019      8.6223
H      1.3782      0.6369      2.3716
H      3.0247     10.8334      2.6357
H     -0.4994      8.2245      8.7627
C     -4.7258      6.4844      8.5434
C      4.2631      0.8116      8.2682
C      6.1482      7.4515      3.2161
C     -3.6262      9.9681      5.8381
C     -0.2996      6.2960      2.8661
C     -1.4788      6.4513      3.6263
H     -8.4371      6.2520     11.8572
H     -2.4823      3.2524      6.7223
C      1.9090      0.7808      9.0349
C      0.4196      5.0410      3.5040
C      4.9054      3.7041      2.6133
H      1.2551      4.5358      7.7613
H     -4.8451      8.6866      7.6117
C     -6.1679      3.8638     10.4881
H     -2.8404     12.6918      7.5026
H     -5.8932     10.3304      6.5441
C      1.7575      6.8015      8.8184
C     -1.7875      5.5853      5.7911
C      2.4099      0.4385      2.3785
C      0.9083      4.5944      5.8522
C      1.9152      6.5396      7.0646
C      2.1419      4.5077     -0.0033
H     -1.6834      5.4515      1.3103
H      3.9529      2.2104      2.1089
H      4.6923      1.6172      0.1295
H     -4.1335      5.7790      8.3315
H     -5.3625      2.3381      9.3551
H      5.2955      1.5892      3.1008
C     -0.4503      9.0927      4.5920
C     -3.9526      7.4169      9.5277
H     -9.2919      6.0717     13.4629
C     -4.5848     11.7417      7.6240
H     -4.5765     10.5268      5.0192
H      5.7530      1.6929      9.5220
C     -0.3272      7.7349      7.6061
C      0.1563      3.5442      5.4428
O      8.8378      5.8344      4.2132
C     -1.5772      8.1364      5.4497
C      6.4591      1.6605      7.4395
C      5.4848      1.9996      6.4301
C      3.1275      0.8083      6.1785
H      8.2419      6.3685      5.7794
H      7.6345      1.7021      7.7472
H     -7.5962      3.4244      8.4285
H     -0.7433      9.5319      6.8823
H      5.6036     12.3564      5.5475
C      1.7234      4.9127      6.9114
H     -0.1061      4.0366      1.3180
C      3.6138      5.3449      5.0134
C      3.2577      3.0055      9.0249
H     -3.8382      8.9106      1.3202
C     -4.5359      7.5724     10.7155
H      4.5293      4.6461      8.3356
H     -2.4155      6.7285     -2.1870
H      6.5234      0.7272      7.0453
C      3.8242      2.6491      4.4644
C      4.6339      9.9626      5.7651
C     -6.4862     12.6895      8.8677
C     -5.4303      9.2987      8.0904
C     -7.2076      4.3334      8.0237
C      5.7815      1.0708      8.6214
H     -0.3873      2.9581      9.5229
H      1.7708      3.4843     -0.4087
H     -6.7143     10.0217      0.6149
H     -3.4657      6.0363     11.8215
H     -0.2992      1.8164      5.7644
C      1.6115     10.0839      0.9612
H      3.2057      4.9224      9.1069
H     -3.2487      9.4200      3.1880
