262

C     19.8136      9.0188     13.8935
C      3.8028      1.8056      6.8701
C      2.1997      2.9958      1.2821
C      7.0115      5.0161      2.4267
H     -2.8341      3.3665      2.4632
C      7.3552      3.6158      2.8689
C      2.9637      4.0477      5.4297
C      6.8879     -3.2140     10.4023
C     15.9578      7.2168     19.6051
C      5.8338      1.8468      3.9094
C      6.1867     -4.4530      9.8732
C     13.7459      8.6831     13.7189
N     -0.2687      2.8163      6.9114
C     13.4126     -6.9751      0.4468
O     -1.3467      2.1476      2.3025
C      3.1505      4.1016      6.9437
C     15.5003      6.3136     17.3139
C     16.5675     10.7915     16.5634
H      1.3072      1.0868      9.6832
H     -3.5449      3.3399      5.3154
H     17.4975      6.5194     16.9171
H      6.4005     -1.0577     10.4104
C     16.9300      9.2455     16.4236
H      7.0505     -2.8462      9.3911
H      8.1863      3.0812      3.7445
H     11.7095      7.6278     10.1725
H     -1.0919      5.1307      6.6348
C      2.8975      2.6543      7.6470
H      9.8017     -2.9950      0.6968
H      6.6728      1.4801      4.4743
O     14.6209     10.1587     15.2665
C      8.0993     -0.2903      8.8098
C      6.6320      6.0692      9.8992
H     16.0883     -5.8893      8.9685
C      6.1813      2.6099      2.4244
H      7.0847     -3.3052     11.3849
H      4.9164     -2.6548      8.9523
H      4.5620     -6.1283      9.8225
C     17.6544     10.8839     17.6655
C     10.2401     -4.2599      4.9006
O     14.8297     -4.4131      4.8676
C     11.2533     -5.3388      6.9838
C      9.0657      8.3251     12.0481
C     20.3357      7.8737     13.1214
C      6.2154      7.2664     -0.5086
H      5.1426      4.2056      1.4000
H     17.7994     10.6410     14.5960
H      1.0798     -0.3070      3.1836
H      7.9759     -6.8682      8.0175
C      6.7435      7.1177     10.8888
C      8.0440      5.7514      3.1390
H     21.8048      9.7081     14.8975
C     -1.1714      6.6070      5.0267
H     15.1760      8.8300     20.7305
H      4.4190      0.3256      2.1190
H      4.8992     -1.9449     10.1111
H     14.9572      7.0506     13.6181
C      9.8398     -0.9285      7.0302
C      5.6623      5.1463      9.2192
C     15.7970      7.5486     18.1369
C      4.6263      6.5270      0.9531
C     17.6277      9.4405     15.1052
H      9.2248     -4.9967      5.2896
H      8.6023      7.6705      3.0758
H      4.1155      0.7318      9.9192
H      6.0184     -0.0974      9.2313
H     17.9416     12.8080     17.3847
C      0.1819      4.0978      9.0044
C     13.3246      8.0719     12.1996
C      1.6232      1.7303      7.9112
C     12.1778     -6.6061      1.4182
H      5.4548      8.0460     -0.8208
H     -3.2900      3.2926      3.6515
H      6.9084      3.8219      4.2682
H      6.1321     -1.7269     11.6744
C     10.1458      7.7517     12.6577
O     14.6693     11.0605     13.2046
C      6.5974     -4.1299      8.0311
C     16.1320      8.6219     20.1526
C      3.3939      1.2790      9.3020
C      3.3337      1.7483      4.5244
H     11.6080     -2.3999      1.3825
H      5.5558     -0.2614      6.8021
C      3.7882      3.4845      3.1047
H      9.2660     -3.6035      6.1738
C     10.8297     -4.4924      0.7092
C     11.0899      7.1450     11.6828
H     11.2748     -2.4408      7.0197
C      5.4867      2.9557      4.9289
H     18.7904     12.2556     18.3636
H      8.6574      0.7182      8.9247
C      2.4516     -0.7794      8.9103
C      4.7825     -1.6906      7.9697
C     -2.0138      5.0705      3.4757
C     16.1873      9.7380     19.3146
C      2.4396      3.7918      2.5705
C      4.6997     -5.0461      9.9646
H      2.4124     -1.2937      9.6517
H     16.1057      8.2835     13.8354
H     -3.3682      5.1167      1.6650
H     14.9367     -8.6857     -0.8382
O      5.4009      7.0624      6.5268
C     13.5090     -5.1070      4.4104
H     16.1784     10.9998     19.8416
C     10.5321     -4.2148      3.4300
C     10.6029     -5.4923      2.9384
H      5.3052     -3.9685      7.6766
C     10.1692     -5.1491      7.5778
H      0.9281      2.3045      4.9971
H     14.5221      7.8633     10.4918
H      6.2162      1.7733      1.8069
H      1.3207      4.1124      9.3229
C      3.2754      2.1457      0.7119
C     12.9010     -4.5795      1.9297
C     -0.4319      2.8731      1.9748
C     -0.2521      3.9660      4.2082
C      7.3361     -1.9202      7.2486
H      1.2580      0.1986      4.4592
H      9.4884     -5.3092      6.8559
H     15.5143      9.7730     18.4665
H     13.3670     -6.8280     -0.7416
O     13.0107     -3.6215      6.2430
C      6.0934     -1.0965      7.5338
C     13.8750     -6.0371      6.8184
C     15.1801      7.9580     13.9845
C     13.7139     -5.4109      2.9703
H      8.2849     -0.8210      9.8287
C      2.8628      1.2908      3.2628
C      0.4146      2.6241      8.1369
C     10.4463     -2.0757      6.5550
C     -2.7207      3.2650      4.6647
C     18.4404     11.8311     17.4985
C      3.3216      3.9959      9.8028
C      0.9154      2.2749      1.4683
C     11.6653     -5.2186      1.6210
C      3.8810     -0.7353      8.4749
N      1.9228      0.1710      3.6744
H      3.8937      1.5395     -1.5997
C      3.3041      1.3502     -0.7366
O     17.1649      6.1315     15.9432
C      9.5759      6.6380      0.8132
H     17.9517      9.5763     19.4306
H     -0.0079      2.2465      8.9864
C     -2.6328      4.5264      2.4138
C      9.8076     -4.7687      9.1643
H      1.3406      1.4964      6.9567
H      7.6330      5.1614      0.2985
H      7.6206     -3.4918      5.9960
C     10.8081     -3.2136      0.9703
H      4.4148     -4.1327      9.5018
H     14.5433     -5.7259      9.4789
H     12.1565     -3.1614      4.2161
H     15.3606      9.2222     11.7360
H      2.2958      1.4375     -0.8706
H     -0.2372      4.0836      9.9650
C     15.1762      7.5180     15.5421
C     14.6325      8.2662     11.5556
C      5.8408     -1.8363     10.6627
H      2.6073      4.0661     10.6714
H     15.5809     11.1207     16.8999
C      4.4854      8.5163      4.6072
C      7.8608      7.0963      2.6743
C     20.9405      9.9238     14.2500
C     18.8774      8.7604     15.0988
C      4.1494      6.1862      6.4885
C      1.8369      5.1716      2.5705
C      5.8470      6.3050      0.5096
C      5.5814      7.6699      4.2020
C      8.0809      6.9363      1.1640
C      4.0815      5.1109      7.3790
C     14.3532     -7.6578      1.0892
H     -2.6998      5.7771      6.3973
C      6.4693      6.8430      5.3829
H      9.5446      5.6854      0.0851
H      0.8965      1.6204      2.6174
C      7.1025      5.7411      1.1623
H     -0.5237      3.3469      3.1175
H     10.8333     -5.0521      9.4187
O      7.6326      6.6297      5.6773
H      9.5730      9.0942     11.5431
H      1.9911      3.3356      3.4766
H     15.9302     -7.8866     -0.1826
H      4.8612      5.2670      4.9172
C     12.2334      7.7401     11.3241
C     15.8426      6.3739     15.9728
H     15.0636     -7.1492      9.3226
C     -1.6536      4.2337      4.5988
C      0.3524      6.5473      5.5375
H      4.3168     -4.8687     10.8958
H      3.0528     -0.0051      5.5931
C      1.1787      5.6060      4.8909
H      2.6601      0.0442      1.6323
H     16.8652     11.2049     15.8008
H     12.4774     -6.1699      8.7862
C      7.6584     -6.5001      9.0251
C      4.3357      0.8605      8.0525
O      6.0846      4.1208      4.9415
C      6.3901      7.6044      3.0197
C      9.8016     -2.9830      5.6388
C     12.6973     -6.7241      2.7661
C     -1.4382      6.3920      3.6187
H     16.9852      8.6307     21.0227
H      4.7843      7.6922      1.5061
H     -2.2072      2.4198      5.1208
C      2.0609      0.8103      8.9485
C      0.6312      5.0376      3.5962
C      4.9796      3.5428      2.4267
H     14.0872     -8.7361      7.6156
H      8.0247     -4.3022      9.4235
H      7.7942      4.7747      4.5471
H     10.5664     -0.2842      7.3316
H      7.3033     -1.7071      6.0899
C     15.1491     -6.1339      8.7902
C     -1.8614      5.4383      5.5646
C      3.4276      0.9076      1.8437
C      1.5898      4.4640      5.6565
C     14.9561     -6.5672      7.2986
C     15.1371     -8.5830      0.2207
H      4.3816      2.7605      0.4517
H      3.1329     -0.0115     -0.5537
H     11.3374     -1.4614      6.0472
H      4.8730      1.2601      3.9890
C     12.5028     -4.1584      4.9878
C      8.4710     -5.2456      9.5989
H      3.8228      5.9017      1.2553
H     21.7167      9.9129     13.5126
C      8.5436     -1.1068      7.7728
H      9.0293     -2.6992      4.9409
H      5.6296      2.2165      9.0722
C     12.5433     -5.7071      7.6243
C      0.5553      3.3340      5.3868
O      8.5811      5.2617      4.2156
C     11.2993     -5.0146      5.3980
C      6.2586      2.0016      7.0665
C      5.2718      2.2745      6.3288
C      3.2894      1.0498      5.6575
H      7.0167     -5.2421      8.0641
H      8.4129     -3.5271      7.6586
H     12.1778     -3.0995      6.6543
H      1.7739     -1.5895      8.6435
C     14.7997     -8.1278      7.0462
C      3.7159      5.3958      5.1480
C      3.2521      2.7498      9.0224
H     20.5925     10.9357     14.4782
C      8.2697      7.3154     11.0190
H      3.8690      5.6502      8.4114
H     10.2867      6.9232     10.9849
H      6.9788      1.2732      6.7814
C      3.9113      3.0716      4.5906
C     17.4211      9.7537     18.6413
C      6.5306     -0.0195      8.4144
C      7.4852     -3.3904      7.2414
C      5.6065      4.9856      7.6519
C      5.8370      1.2093      8.3701
H     -0.5258      4.7091      8.4183
H      0.6867      1.7163      0.5421
H     18.8332      9.2578     13.3898
H      8.6839      6.3785     11.2923
H     -1.3521      3.3544      6.9820
C     14.4026     10.1943     14.0993
H      2.5835      4.4187      8.9757
H     10.5618     -3.3699      2.4739
