256

C     -5.7192      8.9890      0.9058
N     -2.1488     10.7813      1.1045
C      3.7602      1.6436      7.0473
C      1.9839      2.6820      1.7888
C      7.4658      5.1314      2.4093
H     -3.1979      6.7647      2.1380
C      7.2357      3.9507      3.2197
C      3.3100      3.8985      5.4007
C      3.1092      7.0618      6.6323
C      5.8877      1.8494      3.8223
C     -7.2357      7.9166      9.8185
C      0.8385      8.7157      0.8209
N     -0.4225      2.7706      6.3914
C      0.2866      5.9483      0.6841
O     -1.6561      2.3601      0.9946
C      2.9625      4.0109      6.9239
C      2.7815      6.2265      4.5126
C      3.3853     10.2570      3.6563
H      0.9908      0.9847      9.6134
H     -3.6445      3.7775      5.0190
H      3.6217      6.7201      1.8696
C      4.0351      9.0356      3.2264
H     -8.9911      7.0806     10.0387
H     -6.2980      7.9253     10.2110
H      8.0054      4.0030      3.9944
H     -0.2562      7.0273     -2.1759
H     -1.0688      5.1869      6.5548
H     -4.3033      3.7129     10.1502
C      2.9686      2.7364      7.6598
H      6.5827      1.1155      3.9546
O      1.1049     11.2514      1.7097
C     -4.8569     12.9337      8.5322
C     -5.5336      5.7423      9.6817
H      2.2624     -0.1516      6.1396
H      2.9769      6.2313      8.3405
C      6.0825      3.0263      2.7428
H     -6.6131      5.0086      7.5576
H     -8.3410     10.7287      9.3915
H     -8.4395      6.4882      8.6331
C      4.1763     11.0192      4.8958
C     -2.9022      8.4989      4.9448
O      1.8565      8.5775      4.9074
C     -1.2771      8.1085      6.8911
C     -4.3927      8.4496     -0.8652
C     -5.4860      7.8659      0.0157
C     -6.4531      6.9974     12.3270
H      5.1634      4.4089      1.6858
H      4.6825      9.4399      1.3546
H     -5.3753      7.0671      8.1646
C     -5.1228      3.0019      9.8391
C     -5.5036      6.4477     11.0749
C      8.0708      6.1677      3.6082
H     -4.6914      7.3029     14.8239
C     -1.0415      6.7081      4.9081
H      3.2821      8.4909      8.3039
H      2.2733      6.8692      0.4791
C     -3.1652     11.7317      7.2927
C     -6.5239      4.7353      9.3686
O     -7.2549      2.8918     10.7323
C      2.8021      7.5028      5.1296
C     -8.1865      5.3672     12.5653
C      4.6012      8.6518      2.0665
H     -3.2364      7.3906      5.3133
H      7.8890      7.8632      4.6547
H      3.2029      0.7871     10.2570
C      0.3139      3.6221      8.8967
C      0.3211      8.8265     -0.8547
C      1.5045      1.9882      7.6452
H     -1.4844      8.0213      9.3293
C     -0.7070      6.4524      1.2999
H     -7.1417      7.8387     11.8285
C     -2.9904      7.7764     -0.5723
O      2.6497     10.3142      0.3429
C     -6.7265      8.7257      8.6482
C      3.6270      8.2137      7.3291
C      3.3414      1.2517      9.2924
C      2.5746      1.5310      4.7589
H     -1.8262     10.5982      1.9736
H     -2.4615      9.8586     -0.7832
H     -6.5999     12.2004      6.9708
H      4.1068      4.0446     10.7281
C      3.7964      3.2025      3.1360
H     -4.4361      9.5085      6.2601
C     -2.2980      8.4752      0.6310
C     -1.8308      7.3805     -1.3202
H     -1.7584     11.2259      5.8872
C      5.4897      2.2797      5.0349
H      3.6942      0.3345      5.6719
H     -1.6612      3.0655      0.4021
C    -10.5670     12.2349      8.6842
C     -8.3493     11.1754      8.2421
C     -1.9929      5.0716      3.2770
C      3.4408      9.5503      6.3857
C      2.3535      3.5687      2.7689
C     -8.1490      6.6834      9.7740
H      3.1954      8.5262      1.1983
H      2.4467      5.2490     -0.2158
O      5.2666      6.5848      6.6409
C      0.5144      8.0671      4.5557
H     -8.5344     10.2769      7.6482
C     -2.8820      8.5220      3.3788
C     -2.2854      7.4325      2.7302
H     -7.4449      8.7520      7.9199
C     -2.6255      7.8897      7.5507
H      2.5682      3.9508      4.5664
H     -8.1651      3.7194     11.4940
H     -0.6175      4.2200      8.5764
C      2.8988      1.5590      1.6105
C     -0.2581      8.6188      2.0895
O     -8.2152      4.0843     12.4683
O     -5.8868      4.3143     11.7724
C     -0.3837      2.6017      1.9216
C     -0.2901      4.0151      4.1083
C     -5.6463     10.7753      7.5047
H     -3.4787      7.7062      6.9666
H      0.5633      6.0596     -0.4594
O     -0.2712     10.0865      5.9644
C     -6.8617     11.5915      7.8105
C      0.8756      7.0963      6.6233
C      2.1564      7.9464      1.1506
H      2.6897      8.4141      3.1721
C      0.5003      7.5679      3.0603
H     -4.0279     13.2115      9.2300
C      2.6184      0.4830      3.7770
C      0.2347      2.6846      7.7947
C     -2.6970     10.8352      6.3947
C     -2.6548      3.4256      5.1334
C      4.5344     12.2188      4.8296
C      3.4164      3.9155      9.7408
C      0.8859      2.0574      1.2810
C     -1.4621      7.7554      1.5658
C     -9.2924     12.1054      7.8514
N      2.2402     -0.6559      4.2467
C      3.7342      1.3788      0.3353
O      3.9989      6.2383      2.5532
C     -3.7248      6.4412     12.9499
H      5.4788      9.3220      5.7472
H     -0.3949      1.8845      8.1299
C     -2.6402      4.6669      2.1518
C     -2.6693      7.8807      8.8962
H     -5.0127      3.2159      8.7487
H      1.3377      1.5586      6.6783
H     -4.7613      4.2375     11.9438
H     -5.1173      9.6950      9.4986
C     -1.8915      9.9781      0.1269
H     -7.8366      5.8487     10.4493
H     -0.8004      9.5325      4.1309
H      2.0228      9.7870     -1.2633
H      3.6805      0.8852     -0.7577
H      1.3913      3.5984      9.0031
C      1.8997      7.4958      2.5497
H      3.6129      2.5216     -0.1558
H      0.1141     11.1023      1.7871
C      1.1702      9.3059     -1.7465
H     -6.8850      2.8251     11.7074
H      2.5394      9.7299      4.1248
C      4.0677      8.0223      4.3002
C      7.6215      7.5451      3.5647
C     -4.6202      9.7640      1.5796
C      5.8975      7.8748      2.0360
C      4.0086      5.9073      6.5379
C      1.6893      4.9617      2.5201
C     -6.8486      5.9686     13.2250
C      5.3421      7.5008      4.5200
C     -4.7476      6.6988     13.8298
C      4.1547      4.7029      7.6595
C      1.1633      5.0690      1.2318
H     -2.6054      5.5699      5.7981
C      6.2328      6.4631      5.6770
H     -3.3165      5.3205     13.4193
H      0.8548      1.3069      0.7512
C     -5.6738      5.6888     14.0274
O      7.4302      7.0202      6.3644
H     -4.2843      9.5017     -1.0026
H     -5.1120     10.0124      2.4349
H      1.7326      3.4247      3.5615
H     -0.7742      9.6714      2.5041
H      2.9146      3.9355      0.5542
H      4.6088      5.0152      4.2120
C     -0.4865      7.6744     -1.3244
H      6.1865      5.4500      5.2452
C      2.6493      6.2255      3.1031
H      1.7416      6.1467      9.7440
C     -1.8815      4.5811      4.5599
C      0.4249      6.8441      5.1886
H      4.7680      8.1850      7.5078
C      1.2383      5.7700      4.7114
H    -11.2498     11.7911      9.4503
H      1.4118      0.3025      1.9112
H      3.4251     11.0680      2.8449
H      0.0298      7.4583      8.5924
C     -4.6826      6.3892      8.6735
C      4.2441      0.6333      8.2443
C      6.1945      7.6808      3.3491
C     -3.5591      9.7027      5.6325
C     -0.2773      6.3042      2.7798
C     -1.5076      6.3905      3.4717
H     -8.5915      5.9137     11.6886
H     -2.3683      3.1669      6.0528
C      1.9383      0.8701      8.8449
C      0.5536      5.1826      3.5734
C      4.9023      3.6151      2.3172
H      0.9302      4.6681      8.0360
H     -5.6264      9.1917      7.3720
C     -6.2835      3.7356     10.3571
H     -2.5564     12.6029      7.0659
H     -5.8927     10.5575      6.3371
C      2.1242      6.3646      8.8142
C     -1.5776      5.5485      5.6189
C      2.3456      0.4564      2.2876
C      1.1421      4.5890      5.7843
C      1.9243      6.4122      7.4002
C      1.8906      4.4118      0.2687
H      3.7131      1.9087      2.3089
H      4.8846      1.2563      0.3909
H     -4.2050      6.0340      7.7216
H     -4.6365      2.0825      9.8491
H      5.4480      1.0950      3.0661
C     -0.4952      9.0218      5.0350
C     -3.9611      7.4154      9.6042
H     -8.8786      5.5421     13.2943
H     -4.0284      8.7755      3.1523
C     -4.5350     11.9189      7.6445
H     -4.1122      9.6639      4.8003
H      5.8379      1.4948      9.3626
C      0.0031      7.7401      7.3953
C      0.0014      3.8087      5.5821
O      8.8166      5.5083      4.5212
C     -1.5520      8.0684      5.4536
C      6.3659      1.4247      7.2936
C      5.1646      2.0967      6.4690
C      3.0393      0.8907      6.0564
H      8.2446      6.8205      5.7148
H      6.7868      2.4047      7.5241
H     -7.4306      3.0540      8.0161
H     -0.5882      9.3387      6.6428
H      5.2930     12.8983      5.2735
C      1.6014      4.9143      7.0934
C      4.1013      5.0483      5.1746
C      3.4088      2.6728      9.1704
C     -4.4594      7.6212     10.7952
H     -1.6288      6.2861     -1.3110
H      6.9954      0.7535      6.7413
C      3.9209      2.5567      4.7157
C      4.4942      9.9567      5.6545
C     -6.2243     12.5762      8.7995
C     -5.5261      9.4532      8.5442
C     -7.3440      4.3153      8.2037
C      5.7600      0.8817      8.5491
H     -0.1083      2.7835      9.7830
H      1.0766      3.5607     -0.3604
H     -6.3280      9.6233      0.3439
H     -1.0785      2.0003      6.3600
C      1.6666     10.1331      1.0848
H      2.4754      4.3323     10.1295
H     -2.3017      9.5622      3.2849
