260

C     19.6916      8.3957     13.3415
N     -2.8880     10.3930      2.1118
C      3.7958      1.5509      6.8677
C      2.4137      2.5912      2.0433
C      7.4010      4.5924      1.6566
H     -2.9126      6.4798      2.6014
C      7.5681      3.3526      2.3198
C      3.2852      3.8730      5.4594
C     16.2759      7.4398     19.4732
C      6.3083      1.8609      3.9950
C     -6.7928      8.3303      8.4943
C     13.6756      8.7939     13.8045
N      0.1760      3.0210      6.4027
C      0.7320      6.2631      0.6113
O     -1.4176      3.0666      2.2818
C      3.1070      4.0955      7.0059
H     13.5338      7.4430     10.9742
C     15.9255      6.3195     17.1976
C     16.7578     10.3352     16.2686
H     -1.6610      2.6561      6.6300
H     17.5992      6.3388     14.6308
C     17.1651      8.8719     16.0189
H     -7.9024      7.7050      9.9663
H    -10.6961     17.1555      9.2892
H     -1.0921      5.6250      7.1609
H     -7.1367     14.3754      9.2495
C      2.9551      2.7421      7.9702
H      7.3204      1.1729      4.1695
O     14.2336     10.3216     15.3792
C     -5.3320     11.7951      9.5706
C      6.7862      6.1424      9.5961
H      1.5944      0.6505      6.3811
H      3.5848      5.5401      8.3972
C      6.3717      2.9883      2.9666
H     -8.8249     11.6961      9.5897
H      2.1923      7.9879      8.9113
C     17.4239     10.7412     17.3188
C     -3.0780      8.6874      5.1093
O      2.2820      8.6386      4.9345
C     -1.3474      8.5171      6.9931
C      8.6945      8.1180     11.8813
C     20.5737      7.5102     12.6248
C      6.4254      6.7790     -1.1663
H      5.0359      3.1154      1.4419
H     17.5526      9.1759     13.7491
H      1.9976     -1.4223      5.4908
H     -5.0880      6.1736      7.6862
C      7.6395      2.7812      8.9164
H      1.0238      1.2309      2.3382
C      7.4232      6.5381     10.7082
C      7.9288      5.4693      2.4320
H      8.2349      7.8032      1.6006
C     -0.8480      6.8180      5.2811
H     16.8030      9.1669     21.1592
H     16.3145     10.8435     15.5860
H      2.8432      5.7739      0.7582
C     -3.6723     11.3904      7.8652
C      6.4528      4.8052      9.2900
C     16.1895      7.6308     17.9689
C      4.7656      5.2319     -0.3209
C     17.5768      8.5261     14.6201
H     -3.7189      7.9857      5.5942
H      8.3934      7.3264      3.4099
H     -9.3095     13.7218     10.2676
H     -7.3255     10.2603      9.2114
H     18.9050     12.1500     16.6252
C     -0.2868      3.2154      8.6622
H     19.2391     10.2493     14.1419
C     13.2783      8.9388     12.3769
C      1.6720      2.0716      8.0291
C     -0.5077      6.3311      1.6385
H      5.7183      7.4985     -1.2404
H     -2.6858      2.5835      5.0734
H     18.9735      8.8194     12.5872
C     10.0610      7.5414     12.7358
O     15.6347     10.0936     13.6020
C     -5.6344      8.5188      7.6895
C     16.8771      8.5112     20.3653
C     -9.6047     14.4247      9.5864
C      2.5294      1.1262      4.5542
H     -3.7522     10.4980      2.6787
H     -3.2177     11.0209      1.2346
H     -7.1048     12.9295      6.6445
H      3.7018      7.4207      8.9890
C      4.1927      3.7136      3.2057
C     -2.3645      8.2808      0.8939
C     11.3756      6.9460     11.9041
C      5.2909      2.1659      5.0373
H     17.1881     12.6986     16.7895
C    -10.9599     12.4574      8.9414
C     -8.5244     11.1826      7.5467
C     -2.1592      5.2059      4.1250
C     16.7509      9.9680     19.5238
C      2.9043      3.7727      2.5264
C     -7.3114      7.2667      9.2952
H    -10.9293     11.6615     10.0065
H     15.6520      7.3134     13.2841
H      8.6992      4.6335      3.7639
H      1.2633      3.0741      0.5650
O      5.8169      6.3217      6.1536
C      0.7673      8.1742      4.3665
H     -8.4718     12.0692      6.7769
C     -2.8789      8.3906      3.6636
C     -2.1071      7.2739      2.9570
H     -4.9044      9.8705      9.0886
H      8.2943      2.9593      3.0939
C     -2.3883      8.7270      7.7412
H      2.4735      3.9964      4.6987
H      3.6720      4.2525      0.8670
C      3.3480      1.2757      1.9357
C     -0.2433      8.7746      2.0538
O      4.4219      4.0262      0.0930
O      7.3338      3.8482     11.0800
C     -0.1499      2.9697      1.5307
C      0.3945      3.7533      4.0127
C     -5.9527     10.8737      7.5926
H     15.8350     10.7016     19.2736
H     -0.3515     10.1327      4.3881
H     11.8839      8.3694     10.9364
C     -7.2663     11.0647      8.3339
C      0.8357      7.2262      6.9302
C     14.6291      7.5681     13.7386
H     15.5325      8.4045     15.5838
C      0.6292      7.6020      3.0019
H     -4.8357     12.6123      9.7959
C      2.1374     -0.0565      3.6847
C      0.4747      2.6916      7.5641
C     -3.2348     11.0570      6.4904
C     -2.3810      3.1990      5.9909
C     18.0690     12.0391     17.2209
C    -10.0561     16.9750     10.1407
C      0.8957      2.0474      1.7681
C     -1.2668      7.6008      1.6734
C     -9.4004     12.0340      8.5103
N      2.1943     -1.2175      4.4568
C      3.7336      1.4641      0.4127
O     17.2773      5.8204     15.3632
C      9.4568      6.2876      0.1989
C     -2.9550      4.5093      3.2923
C     -2.6751      8.6226      9.1406
H      7.0013      3.2666      8.2279
H      2.1403      2.3312      5.9284
H      7.8940      3.2744     11.6925
H     -4.9955      9.6011      6.0663
C     -3.0306      9.1702      1.5167
H     -7.8472      6.3580      8.8034
H      2.3306      6.3930      9.5800
H     -1.0032      9.5312      1.7914
H     14.0146      9.4596     10.5078
H      3.6738      0.3498     -0.1449
H     -0.4117      2.5880      9.5080
C     15.0198      7.4387     15.2383
H      3.1952      2.1824     -0.0918
C     14.0511      9.6464     11.6177
H      8.2940      5.8518     11.1550
H      1.7509     -2.0495      4.2255
C      4.6592      8.0786      4.2256
C      7.8754      7.0770      2.4719
C     20.1086      9.6574     14.2147
C     18.7954      8.0126     14.4206
C      4.4009      6.1847      6.3640
C      1.9454      5.0021      2.5781
C      6.1456      5.5294     -0.4762
C      5.7540      7.2357      3.8348
C      8.1492      6.1555      0.2701
H     15.0623     10.1526     11.9551
C      4.0730      5.0622      7.4937
C      1.7094      5.1772      0.9226
H     -3.1814      9.4308      7.4070
C      6.4878      6.9069      5.0564
H     -3.0310      5.2652      2.2774
C      7.1002      5.1263      0.4082
H     -0.6397      3.6827      4.0317
O      7.6238      7.1308      5.4326
H      8.7333      9.1715     11.9934
H     20.6530      9.5120     15.3259
H      0.6699      2.9162      3.6066
H      0.3522      3.9617     -0.5049
H      4.8721      5.4229      4.3372
C     12.4865      7.9033     11.6047
H      6.5195      5.0552      7.6721
C     15.7969      6.0942     15.7580
C     -2.0047      4.6685      5.5069
C      0.6758      7.1434      5.3067
H     -7.4837      9.1357      8.6431
C      1.4423      5.9700      4.9249
H    -11.9120     12.3101      8.3566
H     15.1535     10.3737     15.7171
H     -1.9849      7.8909      9.4857
C     -4.7764      7.2180      8.0641
C     -8.8488     13.5153      8.4219
C      6.3853      7.4553      2.6835
C     -3.4127     10.0802      5.1447
C      0.0741      6.0846      2.9290
C     -1.2737      6.4500      3.9277
H     -3.1167     12.3299      8.1629
H      2.5238      3.8370     -0.5175
H      4.3914      5.2851     -1.2468
H     -3.1263      3.5106      6.6224
C    -10.9736     14.0040      9.1839
H     -2.2797     11.6695      6.5803
C      0.8817      5.0599      3.6468
C      5.1690      3.2114      2.4635
H      1.2160      4.9100      8.3159
H     17.8480      8.3252     20.2227
C      7.4457      3.8394      9.7574
H     -5.6061     11.6006      6.9628
C      2.6576      7.0896      8.7407
C     -1.0781      5.6277      6.0831
C      2.3873      0.2416      2.3102
C      1.1937      4.9691      5.9542
C      2.0635      6.8038      7.4778
C      1.4872      3.9822      0.0507
H      4.2662      1.0381      2.5702
H     -2.7664      9.7018      9.6223
H      4.6155      1.9374      0.3346
H     -4.0062      7.1111      7.0701
H      8.8301      2.9925      9.0182
H     -2.7415     11.1021      4.7344
H      5.9106      1.3443      3.1669
C     -0.3575      9.3808      4.9844
C     -3.9753      7.7926      9.2960
H      3.8299      5.8871      0.0758
H     -3.8713      8.6684      3.2592
C     -4.8372     11.0146      8.5812
H     -3.2322      3.5968      3.3851
H     -4.1626     10.5302      4.5602
C     -0.0723      7.8533      7.7145
C      0.7440      3.7616      5.5249
O      7.7989      5.1510      3.8520
C     -1.5624      8.4367      5.6056
C     -6.7815     13.8271      7.1114
C      5.2879      1.7407      6.2707
C      2.4998      1.0515      6.1239
H     -5.7222     13.8804      6.8355
H     -8.2275     15.6254      9.4791
H     -5.5235     11.2728     10.4211
H     18.2161     12.1486     18.2875
H     -0.0186      7.9351      8.7963
C      1.9330      5.0616      7.1474
H     -0.0957      4.0509      1.7681
C      3.8468      5.4748      5.0242
C     -9.3363     15.9950      9.3239
H     20.8869     10.0553     13.7223
H      0.0918      6.1650     -0.4898
C      8.2983      7.8246     10.4599
H    -10.6689     16.5287     10.9780
H     11.5220      5.9190     12.5400
C      4.2650      3.2862      4.6380
C     17.6256      9.9544     18.3593
C     -6.8075     12.2751      9.3260
C     -5.8257      9.5492      6.7061
C      5.4109      4.6410      7.8294
C     -7.2028     13.5525      8.6893
H     -1.2202      3.8803      8.3546
H     -3.9026      9.1508      0.5958
H     -7.6190     12.3547     10.1130
H     10.2165      5.4811      0.2561
C     14.6035      9.9406     14.0668
H     -2.2677      9.4145      3.6196
