267

C     19.9360      9.1361     14.0745
C      4.0054      1.4293      6.9750
C      2.1513      3.0066      1.6021
C      7.0907      5.0550      2.5212
H     -3.0007      3.8204      2.7435
C      6.7831      3.7117      2.9099
C      3.5101      3.8572      5.3498
C     -6.1268      9.8283      9.9619
C     16.0865      7.0756     19.5478
C      6.0461      1.6206      3.7342
C     -7.0895      8.7833      9.1520
C     13.8413      8.7463     13.8595
N     -0.3697      2.8254      6.5685
C      0.8279      6.2719      0.7578
O     -1.4279      3.1413      1.7698
C      2.9945      3.9539      6.7516
C     15.6058      6.1940     17.7156
C     16.0673     10.3003     17.0152
H    -11.6394     14.2109      9.7792
H     -3.2986      3.2122      4.7521
H     17.5898      6.8385     16.0353
H     -6.6202     10.3784     12.1093
C     16.8544      9.1875     16.3381
H     -8.5012      8.8062     10.6280
H     -5.3496     10.5861      9.3214
H      7.5095      3.7384      4.0446
H     12.7784      7.1014     11.1604
H     -1.1139      5.4550      6.7977
C      2.9770      2.7242      7.4915
H     -1.9724     10.3818     -0.6783
H      7.0376      1.3794      4.0195
O     15.2953     10.6427     14.7754
C     -4.8853     12.6844      8.7690
C      6.7948      6.2554      9.6586
H      2.2923      0.0878      6.0925
H      2.5520      6.2211      9.4876
C      6.0559      2.6328      2.5487
H      6.3187      5.0478      7.3678
H     -5.7887      8.9141     10.4051
H     -8.6185     10.4896      8.6445
H     -7.9638      7.3529     10.7090
C     17.3607     10.6395     17.6510
C     -3.0170      8.7528      5.0368
O      2.1217      8.4255      4.9420
C     -1.7334      8.0339      7.0262
C      8.6726      8.4950     12.1946
C     20.3794      7.8791     13.1154
C      6.5014      7.2271     -0.6497
H      4.2795      3.5204      1.2811
H     17.5675      9.8699     14.1890
H      0.9874     -0.5867      2.9722
H     -5.0864      6.2880      7.6514
H     16.3085     10.9315     14.8372
C      7.1874      6.6583     11.0764
C      7.8149      5.8183      3.2723
H     21.9571      8.7392     15.0089
C     -1.2119      6.7141      5.0871
H     15.6891      8.5426     21.3642
H      4.3208      0.8034      2.2631
H     -7.4246     11.4503     10.7047
H     15.3606      7.2653     13.0916
C     -3.0524     11.5526      7.9623
C      5.4798      5.6346      9.0572
C     15.9931      7.5076     18.1088
C      4.8183      6.0985      0.7169
C     17.7460      9.6230     15.3827
H     -3.8149      8.3111      5.4408
H      8.5836      7.9414      3.1187
H     -8.8670     14.9157     10.4218
H     -6.8806     12.1073      9.7379
H     17.9467     12.3979     16.6515
C     -0.0102      3.7757      8.7416
C     13.5881      8.2634     12.3570
C      1.6035      2.0001      7.7787
C     -0.5477      6.5056      1.4212
H      5.8464      8.0667     -1.1679
H     -2.0879      2.4301      4.3500
H     -7.9394      9.9737     10.9978
C     10.1054      7.9253     12.7916
O     14.6486     10.8979     12.7342
C     -6.6810      8.6752      7.8666
C     16.4117      8.2428     20.4879
C     -9.5128     14.4915      9.3982
C      3.0377      1.4541      4.7357
H     -0.5115     10.2482      0.5480
H     -7.1732     12.1239      6.8025
H     -9.3350     17.2712     10.5697
C      3.7087      3.2826      3.3024
H     -4.0940     10.0651      6.2819
C     -1.9746      8.6580      0.6385
C     11.0153      7.3694     11.7911
H     -1.9025      9.5841      7.4078
C      5.2953      2.0506      5.0587
H      4.1572     -0.2155      5.6447
H     -4.2240     13.5698      8.3064
C    -10.7459     12.3624      8.5060
C     -8.3713     11.2875      7.9961
C     -2.1216      5.2943      3.6473
C     16.7698      9.2480     19.6238
C      2.3820      3.5047      3.0328
C     -8.0081      8.1736      9.9167
H     16.4062      8.3616     14.3755
H     -2.3928      4.8408      1.6309
H      1.9891      4.3179     -0.4098
O      5.4400      6.6120      6.5059
C      0.6245      8.0528      4.5773
H     -8.5825     11.2007      6.9011
C     -2.8022      8.6493      3.4056
C     -2.1956      7.6034      2.8827
H     -7.6299      9.4333      7.3577
C     -2.8852      7.7300      7.8009
H      1.1893      2.8702      4.9302
H     14.4798      7.8388     10.4784
H      0.5816      3.6664      9.4703
C      2.9649      1.7137      1.2258
C     -0.0961      8.5906      2.0759
C     -0.3275      3.5980      1.1702
C     -0.2085      3.9689      4.3437
C     -5.6113     10.7762      7.1837
H      1.8030     -0.5494      4.5879
H     -3.9383      7.9115      7.2300
H     16.4153     10.1118     19.7536
H      1.0499      6.1090     -0.2408
O      0.1228      9.9635      5.5561
C     -6.7826     11.5294      7.6931
C      0.5758      7.1789      6.9183
C     15.2118      7.9932     14.1771
H     15.4329      8.4357     16.0852
C      0.6505      7.4962      3.0181
H     -4.5719     12.3861      9.7520
C      2.8838      0.4808      3.4962
C      0.2099      2.6661      7.8040
C     -2.1909     10.6513      6.8042
C     -2.2776      3.1508      5.1123
C     18.2097     11.8844     17.6408
C     -9.8088     17.0080      9.5988
C      0.7356      2.5790      0.9670
C     -1.2691      7.7980      1.5994
C     -9.2699     12.4785      8.4592
N      1.7812     -0.2569      3.6955
H      3.6692      0.9596     -0.6643
C      2.7070      1.3786     -0.1209
O     16.9143      6.1685     15.7088
C      9.4830      6.5729      0.4909
H     18.7105      9.0382     18.8834
H     -0.4706      1.7683      8.0664
C     -2.8711      4.8834      2.7211
C     -2.7230      7.4910      9.2018
H      1.2995      1.1217      7.0356
H      7.2704      4.3818      0.3722
H     -5.2900      8.9624      6.3367
C     -1.5095      9.8225      0.0964
H      5.0509      6.5956      8.8003
H      1.7786      7.9504      9.0221
H      7.4383      5.7948      5.6048
H     -0.9899      9.0310      3.7164
H     15.2156      9.2744     11.8279
H      2.5636      2.1974     -0.7995
H     -0.8942      3.8025      9.1804
C     15.0011      7.4442     15.5944
H      4.9757      5.4344     10.1217
C     14.5145      8.4633     11.3502
C     -7.0595     10.4308     11.1489
H     15.5132     10.1982     18.0288
C      4.4509      8.2735      4.4891
C      7.8624      7.1552      2.8141
C     21.4118      9.6038     14.5479
C     19.0645      8.9031     15.1849
C      4.2462      6.1178      6.4434
C      1.9901      4.9241      2.8516
C      6.1416      6.0026      0.2308
C      5.8471      7.5096      4.0770
C      8.1343      6.7700      0.9922
C      4.0064      4.9319      7.4244
C      1.6515      5.2955      1.3661
H     -2.8959      5.5521      6.3437
C      6.3922      7.0791      5.2585
H      9.7192      5.8675     -0.1772
H      0.1882      1.7377      1.4453
C      7.1792      5.3975      1.0904
H     -0.0991      3.2986      3.4927
O      7.4996      6.6790      5.7963
H      8.9470      9.3904     11.5075
H      1.5571      2.7849      3.3481
H     -0.9092      9.4078      2.1589
H      3.4402      4.7271      0.5122
H      4.7268      5.6099      4.5101
C     12.3665      7.6508     11.9736
C     15.7826      6.2724     16.0639
H      0.8556      6.4710      9.0495
C     -1.5891      4.4663      4.8030
C      0.3499      6.8949      5.3828
H     -8.7978      8.2308      9.2259
H      2.1776      1.9345      5.1725
C      1.1909      5.6220      4.9958
H      2.6347     -0.4477      1.5683
H     16.1296     11.1816     16.1988
C     -5.0099      6.5866      8.9647
C     -8.6714     13.7176      8.4831
C      6.6045      7.8004      2.9094
C     -3.2352     10.3196      5.6159
C     -0.1799      6.2248      2.8674
C     -1.3968      6.5508      3.6943
H      3.9444      6.6679      0.4799
H     -2.3620      2.7270      6.1224
C    -10.9678     13.8443      9.0110
C      0.7694      5.2022      3.7240
C      4.7407      3.2028      2.3526
H      1.2696      4.5818      8.0114
H     -7.1883      7.8612      7.3943
H     -2.6362     11.7121      8.9561
H     -5.8542     10.7030      6.0333
C      1.9071      6.7601      8.8481
C     -1.7707      5.4771      5.9673
C      3.2543      0.3980      2.1878
C      0.8662      4.7805      6.1168
C      1.8564      6.4637      7.4385
C      2.3550      4.3088      0.5821
H     -1.2514      5.6769      1.0717
H      4.0172      1.6819      1.0258
H      2.5022      0.4024     -0.4945
H     -1.6039     11.4237      6.4378
H      5.6910      0.7811      3.2247
C     -0.4818      9.0094      4.8857
C     -3.9760      7.3296      9.6832
H      4.5382      5.1882      1.4618
H     21.8621      9.6079     13.5014
C     -4.5117     11.5727      7.8010
H      9.9421      6.5526      1.3649
H     -3.5124     11.2016      5.0238
H     -7.0109     14.3207      9.5418
C     -0.4768      7.2360      7.7014
C      0.3560      3.4830      5.5298
O      8.5685      5.3576      4.4159
C     -1.7359      8.0587      5.5305
C     -6.6001     14.4042      7.2643
C      5.2808      1.3932      6.2663
C      3.3069      0.5453      6.0490
H      9.1129      6.2660      4.6317
H     -6.1560     15.3497      7.2578
H      5.2423      3.6677      8.2792
H     -4.4946      8.9946      7.8490
H      1.0496      9.8051      5.2557
H     18.9715     12.2342     18.4576
C      1.7959      4.9423      7.2021
H     -0.4840      4.7098      0.9337
C      3.9230      5.3342      5.1721
C     -9.5577     15.8467      8.8632
H     21.1720     10.1995     15.2740
C      8.4549      7.4834     10.9756
H      3.7784      5.4577      8.2808
H     10.8760      6.1402     12.0349
H     -5.7800     13.6740      7.0867
C      3.9091      2.5964      4.5388
C     17.5943      9.3039     18.4530
C     -6.4654     12.5100      8.8645
C     -5.4190      9.3562      7.2901
C      5.5021      4.6831      7.8379
C     -7.1898     13.8768      8.6362
H     -0.1262      4.8700      8.0991
H     -1.6430      7.8835      9.6890
H      0.8922      2.2044      0.0760
H     19.4201      9.8505     13.4506
H     -0.4012      1.7931      6.0559
C     14.3779     10.3077     13.7908
H    -10.3627     17.8256      9.1185
H     -3.1000      9.6828      3.2007
267

C     19.8772      8.9774     13.8888
C      4.0169      1.6372      6.9230
C      2.0322      3.0107      1.4155
C      7.1873      4.8500      2.4914
H     -3.3146      3.6741      2.8339
C      7.1383      3.5879      3.0203
C      3.4747      3.9236      5.3124
C     -6.2281      9.7825      9.8586
C     15.9335      7.1037     19.6602
C      6.1145      1.4513      3.7409
C     -6.9886      8.7748      9.2352
C     14.0167      8.7799     13.8603
N     -0.5115      2.8421      6.4817
C      0.7027      6.2232      0.8308
O     -1.4116      3.1687      1.9269
C      3.1119      3.9224      6.6433
C     15.6540      6.0790     17.5979
C     16.1585     10.3563     17.1316
H    -11.6992     13.4929      9.6395
H     -3.4325      3.2765      4.9379
H     17.6625      6.8331     15.8996
H     -6.1621     10.5045     11.8686
C     16.7189      9.0536     16.3263
H     -8.8574      8.5803     10.7638
H     -5.8012     10.6965      9.2878
H      7.9152      3.6605      3.7592
H     12.9054      6.8789     11.0296
H     -1.3217      5.8574      7.0545
C      2.9815      2.6064      7.2641
H     -1.8793     10.2761     -0.8085
H      7.0890      1.0520      4.0738
O     15.1154     10.5855     14.9969
C     -4.7402     13.0012      8.6523
C      6.7446      6.4041      9.6201
H      2.3892      0.4854      6.6571
H      2.6499      6.4907      9.5696
C      6.0007      2.5840      2.6463
H      6.0887      5.0493      7.1089
H     -5.2569      9.1052     10.2168
H     -8.6007     10.4011      8.4870
H     -8.0460      7.2062      9.8877
C     17.4795     10.6442     17.8721
C     -2.9881      8.6359      4.9595
O      1.9830      8.3742      4.8601
C     -1.7262      7.7616      7.1054
C      8.5142      8.4203     12.2778
C     20.5100      7.8161     13.2740
C      6.4767      7.1638     -0.6464
H      4.6117      3.6135      1.3021
H     17.0813      9.9864     14.5925
H      1.3735     -0.3001      2.6227
H     -4.6077      5.7231      7.8904
H     15.8427     11.0493     14.5977
C      7.1024      6.7653     11.0464
C      7.9557      5.8115      3.2790
H     21.9189      8.8098     14.7290
C     -1.1754      6.6437      5.1251
H     15.3971      8.2833     21.0191
H      4.3884      0.2924      2.0534
H     -7.3555     11.5607     10.6409
H     15.7843      7.5433     13.7580
C     -3.1206     11.4588      7.9385
C      5.5333      5.6030      9.1331
C     16.1008      7.4439     18.0848
C      4.9129      6.1024      0.7304
C     17.7180      9.5196     15.4446
H     -3.9436      7.9822      5.2806
H      8.6515      7.8489      3.2967
H     -8.9442     14.6620     10.1348
H     -6.6685     12.2063      9.8309
H     17.9799     12.0204     16.7429
C      0.2250      3.7591      8.7098
C     13.7406      8.2258     12.3645
C      1.6734      1.8827      7.7292
C     -0.5327      6.3778      1.3178
H      5.3781      7.7645     -0.8651
H     -1.8423      2.1571      4.3444
H     -8.0474      9.9514     11.1096
C      9.9788      7.8828     12.8222
O     14.6706     11.0329     12.8925
C     -6.6818      8.7227      7.8897
C     16.2509      8.2101     20.4168
C     -9.4380     14.5559      9.3226
C      3.1030      1.3900      4.7454
H     -0.6339     10.3522      0.5557
H     -7.0006     12.4934      6.9403
H     -9.9290     16.6225     10.6233
C      3.8184      3.2366      3.3007
H     -4.1126     10.4139      6.0642
C     -1.8966      8.7030      0.6640
C     11.0855      7.2338     11.9635
H     -1.8524      9.9807      7.5617
C      5.2809      1.9469      4.8460
H      3.9442     -0.2171      5.7620
H     -3.7776     13.6128      8.6758
C    -10.7254     12.3898      8.4863
C     -8.2661     11.4710      7.9290
C     -2.3482      5.1803      3.6591
C     16.6983      9.3022     19.8242
C      2.3531      3.5521      3.1758
C     -8.3291      8.2511      9.7971
H     15.9591      8.9256     14.6474
H     -2.6422      5.0363      1.6771
H      1.6398      3.8062     -0.4927
O      5.4507      6.7072      6.5275
C      0.5994      8.1101      4.4681
H     -8.5897     11.6477      6.9134
C     -2.7614      8.6547      3.6313
C     -2.0024      7.6776      2.9559
H     -7.6174      9.3176      7.7005
C     -2.9756      7.6459      7.7214
H      1.4059      2.8491      5.2432
H     14.2771      7.6096     10.5241
H      1.2439      3.6149      9.4898
C      2.8959      1.7036      1.2892
C      0.0441      8.8156      2.1464
C     -0.4375      3.7178      1.2763
C     -0.2676      4.0219      4.1993
C     -5.6455     10.8507      7.2674
H      1.3351     -0.5835      4.7143
H     -4.1543      7.8673      7.5735
H     16.0477     10.1068     19.9092
H      0.8215      6.4636     -0.2941
O      0.1206     10.1288      5.6547
C     -6.8974     11.5946      7.7584
C      0.6684      7.1867      6.7920
C     15.2401      8.0881     14.3334
H     15.4831      8.4717     16.1713
C      0.4845      7.6623      2.9861
H     -4.3442     12.3187      9.7554
C      2.7419      0.5625      3.6156
C      0.3252      2.5243      7.8409
C     -2.1781     10.7452      6.7937
C     -2.3105      3.2014      5.0461
C     18.2009     11.7199     17.7930
C     -9.7538     16.8643      9.5344
C      0.5821      2.6838      1.1503
C     -1.2378      7.9368      1.6247
C     -9.3321     12.4267      8.3479
N      1.7191     -0.2851      3.6743
H      3.7529      1.0234     -0.4993
C      2.6775      1.3276     -0.2421
O     17.0247      6.0006     15.6783
C      9.6948      6.6041      0.6985
H     18.7252      9.3052     18.9370
H     -0.4678      1.8707      8.3453
C     -2.9161      4.6290      2.5547
C     -2.9531      7.3876      9.1997
H      1.5444      1.3208      6.7397
H      7.3898      4.6642      0.4302
H     -5.9106      8.9657      6.4537
C     -1.4277      9.7923      0.0618
H      4.8334      6.3823      8.7271
H      1.5929      7.9466      9.1715
H      7.3576      5.7059      5.6283
H     -1.3981      9.8068      4.3000
H     15.2391      9.0323     12.1489
H      2.6304      2.2726     -0.8286
H     -0.7182      3.1955      9.2830
C     15.0492      7.5289     15.6013
H      4.9860      5.0372      9.8836
C     14.5908      8.4758     11.3450
C     -6.9618     10.3989     11.0793
H     15.0956     10.3296     17.4915
C      4.5414      8.2184      4.4751
C      7.8757      7.1551      2.7169
C     21.2022      9.5337     14.3437
C     18.8515      8.7971     15.1741
C      4.2002      5.9334      6.4520
C      1.9369      4.9264      2.8639
C      6.1272      6.0801      0.4021
C      5.6189      7.3237      4.1967
C      8.2323      6.6622      1.1357
C      4.0179      4.9277      7.5044
C      1.6492      5.2992      1.2651
H     -2.7084      5.9874      5.9779
C      6.2680      6.9262      5.3369
H      9.4049      5.9824     -0.1516
H      0.3858      1.7021      1.6163
C      7.0633      5.4011      1.0918
H     -0.1852      3.3201      3.3582
O      7.5058      6.6583      5.7284
H      8.2718      9.6573     12.2411
H      1.8240      2.7015      3.5701
H     -0.4439      9.6211      2.4378
H      3.3992      4.4230      0.2173
H      5.0079      5.0032      4.1971
C     12.4955      7.5348     11.8562
C     15.6358      6.1070     16.1781
H      0.7503      6.4420      9.2942
C     -1.5334      4.3539      4.8144
C      0.3185      6.8244      5.4247
H     -9.0759      7.7605      9.1241
H      1.9076      1.6643      4.9197
C      1.3006      5.8364      4.9125
H      2.9799     -0.3029      1.6962
H     16.0577     11.4131     16.6207
C     -4.9780      6.5081      8.9062
C     -8.6304     13.7832      8.3249
C      6.4491      7.8317      3.0657
C     -3.1674     10.2945      5.6714
C     -0.1700      6.2697      3.0192
C     -1.4276      6.4786      3.5743
H      4.1088      6.6690      0.6770
H     -2.1095      2.7194      6.0619
C    -10.9100     13.8465      8.7988
C      0.5769      5.1306      3.7163
C      4.6914      3.2238      2.3200
H      1.6554      4.6023      8.1677
H     -6.6041      7.8330      7.4358
H     -2.6911     12.3505      8.4643
H     -6.0725     10.7191      6.2814
C      1.7789      6.8438      8.9488
C     -1.6571      5.6070      6.0636
C      3.2808      0.5440      2.1853
C      0.8350      4.7847      6.0912
C      1.8489      6.5779      7.3638
C      2.2982      4.2956      0.4451
H     -1.1811      6.0347      0.4961
H      3.9622      1.8347      0.7570
H      1.8918      0.6898     -0.3230
H     -1.1642     11.1201      6.3445
H      5.6334      0.3989      3.3625
C     -0.4952      9.0628      4.7996
C     -4.1785      7.2182      9.6830
H      5.1828      5.3286      1.3846
H     21.5850      9.9140     13.4396
C     -4.5450     11.5580      8.0258
H     10.6639      6.4796      0.9940
H     -3.1951     11.2579      5.2275
H     -7.1143     14.0770      9.7172
C     -0.4700      7.3525      7.7162
C      0.3961      3.4954      5.5098
O      8.5777      5.4700      4.3823
C     -1.6581      8.1253      5.6015
C     -6.5922     14.4568      7.3855
C      5.3433      1.3448      6.2797
C      3.3130      0.7128      5.9441
H      9.4014      5.9795      4.1078
H     -6.1144     15.4579      7.1758
H      5.8735      3.7530      8.1887
H     -4.7451      9.0533      7.9846
H      0.9868     10.0087      5.9224
H     19.0921     11.9561     18.2718
C      1.8260      4.9167      7.0587
H     -0.2292      4.6340      0.5361
C      4.0454      5.3071      5.1005
C     -9.4366     15.8338      8.7329
H     21.3592     10.3781     15.2053
C      8.2802      7.4193     10.9992
H      3.7637      5.2715      8.5515
H     10.9798      6.4127     11.4193
H     -5.5348     13.8342      7.1088
C      3.9624      2.6628      4.6173
C     17.6388      9.4600     18.5628
C     -6.4472     12.6235      8.8722
C     -5.5181      9.2501      7.3986
C      5.6170      4.6887      7.8577
C     -7.1918     13.7676      8.5624
H     -0.0960      4.7783      8.7563
H     -2.4769      8.1012     10.2073
H      0.7720      2.1572      0.1005
H     19.4348      9.6571     13.1345
H     -0.9506      1.8621      6.1545
C     14.5348     10.0634     13.7232
H    -10.3607     17.8846      9.6174
H     -2.5412      9.4888      3.0108
