262

C     19.7077      8.5771     13.7168
N     -2.1856     10.6666      1.3763
C      3.9562      1.6411      7.1595
C      2.5018      2.5383      1.8343
C      7.5158      4.7404      1.9668
H     -3.3365      7.2578      2.4570
C      7.4028      3.3215      2.3136
C      3.3681      3.9209      5.3306
C     16.1550      6.9677     19.6084
C      6.2310      1.8601      3.9617
C     -7.1663      8.1890      9.6678
C     13.8954      8.5368     13.4416
N      0.0023      2.7892      6.1336
C      0.1904      5.7097      0.4578
O     -1.2846      2.4037      1.2103
C      3.1557      4.0797      6.9403
H     -0.1091      5.9602     -0.4873
C     15.9758      6.1549     17.2356
C     16.4408     10.1122     16.3269
H    -11.4916     13.9125     10.2662
H     -3.5663      2.9799      5.2839
H     17.9529      6.3189     15.6060
C     16.8052      8.8097     15.9692
H     -8.6949      6.8213      9.8952
H     -7.3593      8.9503     10.4350
H     -1.1264      5.1685      6.5452
H      8.3394      2.8339      8.2404
C      2.7728      2.7419      7.6018
H      7.2502      1.2981      4.0676
O     14.2270     10.4889     15.1027
C     -4.9903     12.6971      8.4338
C      6.1387      5.7772      9.7824
H      2.3807     -0.0817      6.7136
H      4.1498      5.4056      8.3666
C      6.5230      2.9662      3.1820
H      5.6634      3.4190      7.0225
H     -8.3864     10.4775      9.7609
H      1.1564      6.1553      9.0511
C     17.2458     10.4875     17.4194
C     -2.8974      8.5227      4.9192
O     15.1902      8.5165     17.7496
C     -1.3935      8.3621      6.9566
C      8.6070      8.1373     11.6639
C     20.3715      7.8185     12.6640
C      6.3166      6.8635     -0.8142
H      5.2341      4.5527      1.9690
H     17.3917      9.8803     14.0608
H      2.3056     -0.9974      5.7220
H     -3.0973      6.3269      7.9515
H     14.8341     11.5782     13.1220
C      7.7987      2.4949      9.1080
H      0.7214      1.0627      1.5294
C      6.9062      6.6672     10.6217
C      7.7038      5.4157      3.1284
H      8.2089      7.3856      1.9263
C     -0.9725      6.8882      4.9894
H     16.0104      8.1945     21.3826
H      3.3591     -0.8731      2.2705
C     -3.5436     11.8263      6.8720
C      6.1181      4.5598      8.9417
C     16.1497      7.3383     18.1260
C      4.8471      5.0495     -0.4692
C     17.6400      8.9424     14.8702
H      8.0515      8.0297      3.4790
H     -9.0301     14.7452     10.6603
H     18.0823     11.9536     16.6633
C     -0.1866      3.6568      8.6884
H     21.4094      9.6481     13.3861
C     13.2309      8.7421     12.1471
C      1.5021      1.7428      8.0435
H     -1.7975      8.2989      9.5962
C     -0.6071      6.3346      1.2787
H      5.6319      7.4715     -1.1587
C     10.2480      7.7248     12.1534
O     15.0301     10.5234     12.8678
C     -6.7692      8.6642      8.4525
C     16.6261      8.2304     20.3661
C     -9.5478     14.6257      9.7216
C      2.6130      1.4058      5.0454
H     -2.8405     11.3943      1.6115
H     -7.1073     11.7680      6.9983
H    -10.7997     17.8639      9.1606
C      4.1552      3.6811      3.0915
H     -3.6455      8.3475      7.0063
C     -2.0736      8.3593      0.4947
C     11.2593      7.3835     11.3399
H     -1.6464     10.9559      6.0502
C      5.2407      2.2675      5.0199
H      3.9035     -0.1481      6.0658
C    -10.2843     12.5234      9.3652
C     -8.3861     11.1045      8.6275
C     -2.4960      5.5037      3.8261
C     16.4087      9.3858     19.5308
C      2.8342      3.6912      2.4570
C     -7.7472      6.7939      9.2209
H     15.9667      8.2354     13.7532
H     -3.3445      6.0200      4.0979
H      3.0281      5.7238     -0.6757
O      5.8351      6.3543      6.5563
C      0.7811      8.2162      4.4317
H     -8.7199     10.5964      7.6865
C     -2.7267      8.6515      3.3816
C     -2.3161      7.4482      2.7563
H     -6.2001      7.8391      8.2300
H      8.2334      2.6804      2.0841
C     -2.8337      8.7155      7.5980
H      2.2648      3.8732      4.9139
H     13.5765      9.5107     10.3250
H      3.9805      3.7010      1.0031
H     -0.2435      4.6652      8.0482
C      3.5406      1.3997      2.1818
C     -0.1077      8.5722      1.6216
O      4.4011      3.8220     -0.0262
O      7.1826      3.9598     11.1066
C     -0.2508      3.0370      1.3707
C      0.0613      3.8235      3.6781
C     -5.8091     10.7756      7.5075
H     -3.0573      9.7284      7.6905
H     16.0826     10.6475     19.5079
H     -0.2579     10.0614      4.0324
H     13.1378      7.6067     10.4115
O      0.4343      9.7027      6.0000
C     -7.1158     11.6299      8.0876
C      0.6788      7.3388      6.8324
C     15.0772      7.6094     13.7962
H     15.4660      8.3720     15.5015
C      0.6618      7.8697      2.8543
H     -4.3937     13.4026      8.2305
C      2.3770      0.2710      4.1515
C      0.2735      2.5111      7.8096
C     -2.8149     10.9497      6.0385
C     -2.4343      3.3399      5.5986
C     17.6951     11.7770     17.6428
C    -10.1390     17.0282      9.8379
C      1.1171      2.0776      1.3947
C     -1.3302      7.6819      1.4550
C     -9.0662     12.5805      8.8842
N      2.1025     -1.0113      4.5770
C      4.0785      0.8243      0.8022
O     16.9680      6.2706     15.1129
C      9.5553      6.5223      0.1920
H     18.3965      9.0220     18.7580
H     -0.5402      1.8309      7.9638
C     -2.4756      4.7971      2.2833
C     -2.8209      8.4845      9.0774
H      8.4873      2.0481      9.8623
H      1.3217      0.8231      7.5353
H      6.7204      4.7704     11.5665
H     -5.9195     10.4253      9.5207
C     -2.6396      9.6854      0.5293
H     -7.7507      7.1491      8.0379
H      2.8978      6.3229      8.9931
H     -0.5654      9.5903      1.8382
H     14.6829     10.4429     11.6200
H      3.6961     -0.2943      0.5456
H      0.6984      3.5763      9.2236
C     14.9525      7.5396     15.2388
C     13.5773     10.0004     11.4396
H     15.4199     10.4549     16.6986
C      4.3837      8.1655      4.4398
C      7.7112      7.0385      2.8856
C     20.5686      9.6544     14.0925
C     18.9182      8.0819     14.7023
C      4.3888      5.9171      6.2526
C      1.8994      5.0575      2.3047
C      6.0991      5.4432     -0.4376
C      5.6816      7.3822      4.1892
C      8.1401      6.5577      0.1963
C      4.3722      4.8335      7.3746
C      1.3950      5.0098      0.9247
H     -2.2821      6.3313      6.5668
C      6.6108      6.8047      5.4224
H     -1.7955      2.6889      5.2722
H     -3.5159      4.8447      1.8127
H      1.0076      2.0515      0.1303
C      7.2215      5.3938      0.7272
H     -0.5012      3.0963      3.0516
H      8.8087      9.2825     11.3198
H     20.1510     10.8767     13.6072
H      0.9912      2.8720      3.9532
H     -2.3855     10.1966      2.2484
H      2.4066      3.5832     -0.3221
H      4.9820      5.0178      4.1371
C     12.5221      7.9046     11.1989
C     15.6601      6.3316     15.8788
H      2.2627      7.5782      9.2767
C     -2.2097      4.5113      4.9512
C      0.5323      7.1364      5.2475
H     -7.4877      8.8539      7.7622
H      1.7126      1.9537      5.1646
C      1.2845      5.7231      4.7724
H    -10.6282     11.4691      9.8701
H      1.7068      0.1026      2.3181
H     16.7043     10.8339     15.4458
H     -0.4099      7.6307      8.9608
C     -4.0414      6.1890      8.7044
C     -8.5868     13.9045      8.6559
C      6.2625      7.3589      3.0224
C     -3.5163      9.9254      5.3260
C     -0.1286      6.5011      2.7227
C     -1.4433      6.5741      3.6252
H      1.3334      4.4626     -0.9877
H      4.6673      5.0857     -1.8152
H     -2.2410      3.1361      6.7755
C    -10.7944     13.9735      9.4752
H     -0.6063      9.2204      7.1175
C      0.8342      5.2244      3.2798
C      5.4061      3.9345      2.8103
H      1.3931      4.6177      7.9383
H     -4.6160      9.0162      8.6768
C      6.7676      3.4950      9.7904
H     -2.8528     12.5731      7.2827
H     -6.2788     10.4103      6.5719
C      2.0417      6.6887      8.6784
C     -1.5172      5.8548      5.9085
C      2.6954      0.1113      2.7465
C      1.0681      4.7302      5.6735
C      1.7580      6.4347      7.1194
C      2.1859      4.6450     -0.4243
H     -1.6818      5.5663      1.8077
H      4.5147      1.2307      2.5592
H     -3.0108      9.3557      9.7860
H     -4.8017      5.2587      8.9555
H      5.6046      0.9928      3.4638
C     -0.1622      9.2431      4.8746
C     -3.9311      7.3255      9.4060
H      4.1894      6.0190     -0.0395
H     -3.4069      8.6944      2.7277
C     -4.6834     11.7452      7.6081
H     -2.2782      3.7888      2.3799
H     -4.4683      9.9147      5.7470
C     -0.4114      7.5436      7.6591
C      0.1611      3.6937      5.3103
O      8.0990      4.9800      4.2130
C     -1.4518      8.3639      5.3836
C     -6.8084     13.9066      6.9092
C      5.2126      2.0411      6.3587
C      3.3858      0.6129      6.2160
H     -5.7939     13.9414      6.8093
H      1.0146      8.8376      6.3261
H     18.3997     11.8798     18.4629
C      1.6792      5.0061      7.0254
H     -0.1493      4.1419      0.9959
C      3.9353      5.2307      4.8935
C     -9.7741     15.9110      9.0259
H     20.6568      9.9478     15.0777
C      8.1239      7.4223     10.4965
H    -10.6378     16.3342     10.4747
H     10.7861      6.7329     10.7022
H     -7.4494     13.1796      6.4650
C      3.8745      2.6930      4.3180
C     17.3926      9.4701     18.4256
C     -6.5929     12.7116      8.9002
C     -5.4980      9.6964      8.7379
C      5.2848      3.9487      8.0107
C     -7.1309     13.9520      8.4115
H     -1.2333      3.0329      8.9033
H     19.0459      9.0884     13.1097
H     10.5141      5.9127      0.2330
C     14.4336      9.8966     13.8968
H     -9.4701     17.6277     10.5054
H     -2.0469      9.5105      3.3558
