264

C     19.6603      9.1036     13.9277
C      3.9380      1.6250      7.0833
C      1.9196      3.3588      1.1690
C      7.1176      4.8877      2.1225
H     -3.1308      3.4815      2.9962
C      7.2990      3.5468      2.4345
C      3.2246      3.9649      5.6142
C     -6.0716      9.6144     10.4487
C     15.9624      7.0316     19.3729
C      6.2213      1.7845      4.0380
C     -6.9755      8.7873      9.3621
C     14.1695      8.8755     13.9137
N     -0.0743      2.6803      6.6545
C      0.6333      6.1835      0.5901
O     -1.3776      2.0683      1.9345
C      3.2367      4.1383      7.1027
C     15.6254      6.1558     17.4099
C     16.4228     10.6901     16.9347
H    -11.2876     14.1842     10.0630
H     -3.1715      3.3101      4.5583
H     -6.8801     11.5773     10.8958
C     16.9063      9.4303     16.3271
H     -5.3756      9.8721      9.6548
H      7.5603      3.6979      3.5273
H     12.9097      6.9534     10.5981
H     -0.4560      4.8806      6.4625
C      2.9621      2.6974      7.5853
H     -2.2741     10.0228     -1.1341
H      7.2074      1.6950      3.9017
O     14.8145     10.7723     15.1285
C     -4.8146     12.7467      8.4097
C      7.4351      5.8332      9.4817
H      2.7664      6.1320      9.0673
C      5.9788      2.7200      2.5514
H     -5.4890      9.1603     11.4164
H     -7.7065     10.4717      8.2839
H     -7.7678      6.9895     10.5253
C     17.8081     10.7541     17.6213
C     -3.0813      8.5452      5.1082
O      1.7170      8.5544      4.8088
C     -1.6983      7.9566      6.9004
C      8.6737      8.3686     12.0803
C     20.3582      7.9379     13.0704
C      6.4027      7.2195     -0.9128
H      4.8257      4.1508      1.9166
H     18.2880     10.6202     15.2574
H      1.9418     -0.6971      3.1048
H     -4.1545      5.2358      7.9238
C      7.4656      6.6946     11.0044
C      7.7564      5.8113      3.0206
H     21.4838      9.2732     15.3330
C     -1.1967      6.5993      5.1953
H     15.2183      8.7358     20.4530
H      4.2750      0.9909      2.2020
H     -8.0650     10.2567     10.1199
H     15.8407      7.4010     13.8465
C     -3.2657     11.8143      6.9317
C      6.0598      5.6173      9.0218
C     15.8501      7.6293     17.9480
C      4.6526      5.9276      0.3261
C     17.8156      9.5854     15.4150
H     -3.7458      7.6338      4.9789
H      8.1245      8.1255      2.8846
H     -9.2059     14.1145     10.3969
H     -6.4869     11.9472      9.4855
H     18.0913     12.5176     17.0680
C     -0.1111      3.2499      8.9595
C     13.5287      8.2235     12.4299
C      1.6440      1.7481      7.8413
C     -0.7637      6.4684      1.4518
H      5.7276      8.2131     -1.1447
H     -1.8615      2.3228      4.4647
H     -7.6982     10.0797     11.7985
C      9.9766      7.7623     12.7849
O     14.4061     11.1415     13.0500
C     -6.7787      8.9465      8.0653
C     16.1752      8.2423     20.1157
C     -9.2610     14.4417      9.4205
C      2.9820      1.6578      4.9615
H     -0.7598      9.8912      0.3425
H     -5.9940     12.6267      6.8028
C      3.5362      3.4279      3.2588
H     -3.8453      9.3872      6.7553
C     -2.0896      8.7657      0.7437
C     11.2765      7.1925     11.9614
H     -1.6241     10.7745      7.5618
C      5.2385      2.6088      4.9513
H     -4.3818     13.7122      8.0866
C    -10.0572     12.3139      9.3090
C     -8.0151     11.4665      7.9605
C     -2.1369      5.2236      3.5949
C     16.7531      9.4365     19.2905
C      2.2305      3.7715      2.5334
C     -8.0745      7.8480      9.9034
H     -9.2234     12.1772     10.3052
H     15.9506      8.9512     14.2772
H     -3.1777      4.8026      1.7692
H      1.8984      4.3308     -0.6880
O      5.4917      6.9288      6.4895
C      0.5978      8.1333      4.4168
H     17.5328      9.8756     20.0760
C     -2.8949      8.8541      3.5529
C     -2.1244      7.8737      2.9237
H     -7.0482      8.2147      7.4152
C     -2.7664      7.5080      7.6386
H      1.6068      2.8414      4.9670
H     13.9231      8.1329     10.3913
H      6.0048      2.2602      1.6027
H      0.6393      3.8890      9.1608
C      2.8163      2.3025      1.1044
C      0.1307      8.6802      2.0837
C     -0.8440      3.0890      1.4426
C     -0.1238      3.9556      4.1697
C     -5.7449     10.7570      6.9500
H      1.7129     -0.9479      4.4988
H     -3.8082      7.8029      7.5607
H     15.9767     10.1047     19.0052
H      0.9624      6.3483     -0.4406
O     -0.2608      9.6014      6.2731
C     -6.7392     11.8491      7.2197
C      0.4400      7.0091      6.8091
C     15.1818      7.9862     14.3815
H     15.6244      8.6502     16.3656
C      0.7068      7.6946      3.0167
H     -4.4007     12.6162      9.5051
C      2.6860      1.0585      3.6760
C      0.2695      2.1528      7.8366
C     -2.3935     10.7684      6.4843
C     -2.2814      3.1240      5.0751
C     18.2479     11.9794     18.0389
C    -10.0247     16.8057      9.9964
C      0.4013      3.0120      0.7266
C     -1.2091      7.9539      1.7089
C     -8.8582     12.2736      8.4081
N      1.8997     -0.0677      3.9448
H      3.4309      2.1415     -1.1853
C      2.7490      1.5950     -0.3816
C      9.4302      6.7183      0.9812
H     18.6114      8.8849     18.6530
H     -0.4248      1.2569      7.9298
C     -2.9392      4.4677      2.8781
C     -2.4807      7.5260      9.0797
H      1.8862      0.7951      7.0133
H      7.1206      4.9705     -0.2278
H     -5.3770      8.7861      6.5407
C     -1.7815      9.8326     -0.0166
H     -8.6094      7.2184      9.3123
H      2.5174      7.6834      9.0553
H     -0.7997      9.5952      4.1168
H     15.5470      8.3624     11.8631
H      1.7600      2.1808     -0.7863
H     -0.8302      2.9246      9.6483
C     15.0207      7.6803     15.6796
H      5.6427      6.7103      9.0703
C     14.5109      8.5989     11.5583
C     -7.1870     10.4177     10.9155
H    -10.0167     16.6366     11.1753
H     15.5165     10.7784     17.5649
C      4.1714      8.2078      4.3197
C      7.4715      7.1345      2.5560
C     20.9204      9.6770     14.4706
C     18.6313      8.5788     14.9013
C      4.1940      5.9676      6.2519
C      1.8802      5.1062      2.5105
C      6.0036      6.1641      0.2207
C      5.3525      7.2492      4.2555
C      7.9234      6.9072      1.1622
C      4.2974      5.1525      7.5508
C      1.4422      5.4605      1.1049
H     -2.1696      5.0003      6.6031
C      6.2568      7.1148      5.2384
H      9.5578      5.6208      0.7455
H      0.5607      2.0410      0.3681
C      7.1933      5.5710      0.7261
H     -0.5294      3.3801      3.3731
H     -1.9263      6.9191      9.6439
O      7.6021      7.0697      5.6652
H      1.5260      3.5639      3.4622
H      0.1112      9.7831      2.3852
H      3.4447      4.5684      0.4178
H      4.4518      5.4720      4.2149
C     12.5679      7.5221     11.5837
C     15.6750      6.4145     16.0523
H      1.3376      6.2870      9.1642
C     -1.5460      4.3512      4.7676
C      0.3205      6.8495      5.3797
H     -8.8160      8.4575     10.7053
H      3.0227     -0.1304      6.3672
C      1.2996      5.6486      4.8919
H      2.2582      0.4445      1.8710
H     16.4559     11.4146     16.2600
H     -0.3554      6.8601      8.4848
C     -4.3589      5.9967      8.6479
C     -8.4759     13.8193      8.3220
C      6.1035      7.7051      2.9434
C     -3.2737      9.7968      5.7649
C     -0.1126      6.3563      2.9576
C     -1.5577      6.5062      3.6258
H     16.4833      7.9470     20.9772
H      3.8298      6.8663      0.1287
H     -2.5394      2.9417      6.0626
C    -10.4917     13.7148      9.2344
C      0.7243      5.2024      3.6338
C      4.6786      3.6827      2.7926
H      1.1413      4.4924      7.6712
H      8.3232      8.4536      9.9728
H      8.6332      4.7965      4.5090
H     -2.4566     12.5103      7.3504
H     -5.8496     10.9211      5.7559
C      2.1543      6.7860      8.7215
C     -1.3288      5.3485      5.9169
C      3.1152      1.1852      2.2441
C      1.5606      4.3350      5.8020
C      1.8939      6.3656      7.2880
C      2.3299      4.6010      0.3492
H     -1.4619      5.7443      1.0676
H      3.9071      2.9394      0.9817
H      2.0976      0.6103      0.0544
H     -1.4710     11.2276      6.1111
H      5.5484      0.8505      4.1470
C     -0.7697      9.0475      4.9379
C     -3.5178      6.7125      9.6523
H     21.1792     10.0743     13.4977
C     -4.4466     11.5401      7.5136
H      9.7509      6.7873      2.0664
H     -3.8417     10.4191      5.1450
H     -6.8326     14.5753      9.4541
C     -0.3575      7.5844      7.6700
C      0.7141      3.1609      5.5621
O      7.8143      5.4613      4.3019
C     -1.7711      8.0164      5.4794
C     -6.7190     14.6278      7.1775
C      5.2146      1.9510      6.3652
C      3.2805      0.7464      6.1034
H      7.5883      6.5409      6.6098
H      5.4465      3.4975      8.0370
H     -4.6718      9.6418      8.3921
H      0.5096      8.9818      6.6144
H     18.5906     12.4318     19.1687
H    -11.1191     11.7661      9.5235
C      1.9536      4.9156      7.2317
H     -1.4148      4.0982      1.6207
C      3.9131      5.2766      5.0567
C     -9.4844     15.8729      9.1770
H     20.5405     10.7575     14.8340
C      8.5006      7.6903     10.6249
H      3.9528      5.6892      8.4351
H     10.8421      6.6390     11.1719
H     -5.4221     14.9337      6.9167
C      3.7277      2.8790      4.7207
C     17.7479      9.4464     18.2133
C     -6.3046     12.6803      8.5450
C     -5.5066      9.3742      7.4786
C      5.8242      4.8207      7.8457
C     -6.9842     14.0475      8.4498
H     -0.3173      4.1285      8.3757
H     -2.4324      8.5507      9.3666
H      0.0674      3.7629     -0.1321
H     19.1743      9.7788     13.2523
H      8.0032      5.9415     11.7195
H     -0.9203      2.3233      6.2459
C     14.2511     10.3789     14.0231
H    -10.0218     17.6585      9.4135
H     -3.1121      9.6919      2.6572
