266

C      7.0159      8.9672      0.9946
N     -2.3698     10.9423      1.4362
C      3.9837      1.4625      7.0240
C      2.1334      2.9341      1.5517
C      6.8579      5.0783      2.1122
H      9.0311     -7.7348      2.7982
C      7.2948      3.7543      2.6084
C      3.4053      3.7038      5.5683
C      3.4193      7.3538      6.4511
C      6.0518      1.5778      3.5089
C      5.5287     -4.2423      9.3430
C      1.1399      8.6423      0.7113
N     12.4395    -10.0963      6.2488
C      0.1966      5.4917      0.4857
O     -1.6830      2.5068      1.5756
C      3.4227      4.0205      7.0195
C      2.9095      6.2016      4.4697
C      3.8402     10.5985      3.7178
H      0.9296      0.7158      9.3328
H      8.8836     -9.0078      4.8280
H      4.5826      6.9001      2.3015
C      4.0046      9.0091      3.2604
H      4.4145     -5.4772     10.6946
H      5.4142     -3.5288     10.1316
H      7.5641      3.4204      3.7217
H      0.0459      7.1725     -2.0414
H     11.5128     -7.9772      6.8370
H      8.2179    -10.3257     10.3492
C      2.9486      2.7670      7.5688
H      6.8927      0.7815      3.7128
O      1.2885     10.8547      1.9159
C      8.1174     -0.2704      8.6694
H      4.6598     -9.7755     10.1545
C      6.8952     -6.8600      9.9394
H      2.9445     -0.8231      6.4528
H     15.6641     -4.8772      8.9140
C      6.0928      2.8346      2.4998
H      6.4785     -7.9716      7.5274
H      4.4235     -2.2342      9.3174
H      4.8901     -6.1473      8.9496
C      4.7334     11.0919      4.9419
C     10.0304     -4.5250      4.9176
O     14.9742     -4.1211      4.8282
C     11.2434     -5.0851      6.9697
C      8.8457     -4.5797     12.1198
C      7.4665      8.0040      0.0576
C      6.3191     -5.6866     12.1539
H      4.7356      4.5475      2.0464
H      5.2136     10.0273      1.3700
H      1.5260     -0.9571      2.9935
H      8.0976     -5.9296      8.1023
H      0.4350     10.1410      2.4371
C      7.5819     -9.6964      9.6100
C      7.2083     -6.3170     11.2393
C      7.2569      5.9187      3.2017
H      8.4283      7.4328      2.4451
C     11.9672     -6.2703      5.0035
H      2.0210     -0.1222      1.7939
H      2.4657      6.4710      0.6349
C      9.6434     -1.3613      6.8690
C      5.8098     -7.8869      9.7291
O      5.3668     -9.9387     10.8339
C      3.1872      7.5600      4.9881
C      4.4070     -6.9969     13.0731
C      4.8385      9.2700      2.0256
H      9.5325     -5.5187      4.8423
H      7.9047      7.9965      3.9777
H      3.0820      0.7469     10.3044
H      6.5172     -0.5519     10.0370
H      5.2533     12.8394      3.5207
C     12.3925     -9.4422      8.4730
C      0.3387      8.1816     -0.4985
C      1.4653      1.9632      7.5649
H     10.9177     -4.9085      9.5973
C     -0.5469      6.3453      1.4525
C     -2.9009      7.8372     -0.2951
O      2.5622     10.5379      0.2731
C      6.6398     -4.5034      8.5201
C      4.1228      8.3621      7.3319
C      3.2072      1.3269      9.3298
C      2.9231      1.3182      4.7809
H     -2.7155     12.0569      1.4660
H     -2.5999     10.2082     -0.4573
H      5.8384     -1.0223      6.8651
H      3.0437      3.7559     11.1783
C      3.7843      3.0884      3.1850
H      8.5447     -3.9993      6.0350
C     -1.9589      8.5621      0.5853
C     -1.8448      7.1732     -1.4231
H     10.5729     -2.7870      7.7953
C      5.1379      2.0864      4.8537
H      4.2478      0.0190      5.4532
H      8.1715      0.8684      8.8278
C      2.3649     -0.5446      8.2822
C      4.4021     -1.7987      8.2683
C     10.8172     -7.7931      3.6748
C      4.2027      9.2628      6.3334
C      2.3928      3.4032      2.9864
C      5.1321     -5.4506      9.8069
H      2.9226      8.1812      0.6065
H      9.4866     -9.4760      2.8659
H      2.2043      4.6798     -1.2446
O      5.5111      6.9862      6.4763
C     13.6771     -4.6772      4.4994
H      3.7957     -2.5149      7.6242
C     10.4868     -4.2268      3.4395
C     10.9150     -5.3656      2.8788
H      6.2003     -4.7862      7.5705
C     10.1416     -5.0724      7.7258
H      2.2179      4.0826      5.2923
H      0.2549      8.9183     -2.3803
H     12.8215     -9.9616      9.4548
C      3.1203      2.1540      0.8568
C     13.1872     -4.3365      1.9246
O      7.3980     -9.0556     11.7971
C     -0.5251      2.8836      1.6766
C     13.0216     -9.0301      4.1696
C      7.2591     -2.4458      7.4918
H      9.3940     -5.2738      7.1364
H      3.2015      9.6710      6.1602
H     -0.1252      4.8088     -0.2666
O     12.9843     -3.1782      6.1058
C      5.8332     -1.6174      7.8040
C     13.8446     -5.7394      6.6461
C      2.2525      7.5183      1.0611
C     13.7940     -5.1726      3.0775
H      8.7978     -0.8884      9.5204
C      2.7473      0.5156      3.5749
C     12.8723    -10.4458      7.6274
C     10.2040     -2.7371      6.7243
C      9.8976     -9.3447      5.0806
C      5.4823     12.1972      4.3915
C      3.1335      3.7289     10.1076
C      0.6920      2.5379      1.1597
C     -1.0216      7.7180      1.6074
C      3.7222     -0.5686      8.3713
N      2.0628     -0.5515      3.8372
C      3.3347      1.7602     -0.5566
O      3.9679      6.0662      2.2993
C      9.4661     -6.3170     13.8591
H      5.9271      9.7343      6.2874
H     12.4718    -11.3653      8.1670
C      9.7683     -8.4125      2.8468
C     10.0249     -4.9774      9.1624
H      8.2863     -8.9013      9.3683
H      1.6988      1.5031      6.6119
H      6.8786     -7.8150     12.7852
H      8.7657     -3.8798      8.4842
C     -2.4117      9.8221      0.6303
H      4.6773     -7.8721      9.9469
H     14.1651     -5.8631      9.3898
H     11.6461     -3.2519      4.4064
H      1.5836     10.1417     -1.5124
H      2.6747      1.0077     -1.2724
H     11.3019     -9.5834      8.4620
C      2.1442      7.4589      2.5116
H      3.9367      2.4039     -1.2210
H     -1.5292     11.1125      1.9325
C      1.0007      9.0893     -1.5081
H      2.8135     10.5226      4.4936
C      4.3139      7.9158      4.1959
C      7.7380      7.3001      3.1656
C      8.3254      9.5539      1.7216
C      6.0259      8.5981      1.9446
C      4.2389      6.0981      6.2752
C      1.9295      4.9877      2.4729
C      5.6316     -6.5061     13.0686
C      5.6348      7.5475      4.2437
C      8.0981     -6.0727     13.6821
C      4.2997     -7.7240      7.6395
C      1.3895      5.0305      0.8979
H     10.1334     -6.9544      6.2726
C      6.3579      6.8793      5.3621
H      9.8274     -7.3877     13.2342
H      0.8434      1.5081      0.7883
C      7.1488     -7.2746     13.7499
H     13.1132    -10.0825      3.3139
O      7.5857      7.1338      5.8155
H      9.0124     -3.6753     11.4028
H      8.6902     10.4960      1.0010
H      1.8004      3.1087      3.7459
H     12.8601     -3.4042      1.9761
H      3.3527      3.9844     -0.4951
H      4.4738      5.0375      4.4183
C     -0.5922      7.5154     -1.3682
C      2.7895      6.1231      2.9103
H     15.9145     -6.5238      9.3843
C     11.0392     -8.3965      4.8485
C     13.3862     -6.0127      5.2011
H      4.9430      8.5325      7.9802
H      1.8115      1.7649      4.8871
C     14.3685     -7.1655      4.7705
H      1.4194     -1.3263      8.7981
H      3.7611     11.3937      2.9843
C      8.3283     -6.5112      9.0648
C      4.3169      0.8920      8.3911
C      6.3470      8.0473      3.0554
C      9.3218     -3.5151      5.6477
C     12.9614     -6.6327      2.9914
C     11.5004     -6.4159      3.6028
H      3.6850     -6.8079     12.0275
H      9.9891     -9.2333      6.0416
C      1.7898      0.7375      8.7169
C     13.7553     -7.8012      3.6496
C      4.8420      3.5470      2.6447
H     14.5068     -8.1477      8.0203
H      6.9148     -5.4385      9.1013
C      6.5879     -9.1268     10.3950
H     10.2606     -0.3828      7.3891
H      7.3814     -2.7954      6.4690
C     15.0225     -5.9700      8.7718
C     11.3575     -7.3763      5.8198
C      2.3935      0.9023      1.8829
C     14.2134     -8.2681      5.9128
C     15.0300     -6.3119      7.3422
C      2.3829      4.3099     -0.2710
H     -1.4875      5.8107      1.7869
H      3.9764      1.9014      1.1150
H      4.1743      0.8997     -0.2440
H      8.5609     -7.4757      8.5679
H      7.4969    -10.0410      8.6440
H     11.2223     -2.9527      6.3385
H      5.2126      1.1872      3.0023
C     12.3389     -3.8005      4.9850
C      9.2333     -5.7496     10.0020
H      4.5654     -8.0923     13.3209
H      8.1116      9.9726      2.7202
C      8.5671     -1.3666      7.6938
H     10.1601     -8.3846      1.7282
H      8.9257     -2.8679      4.8908
H      6.3124      1.6012      9.4519
C     12.5314     -5.6597      7.3509
C     13.2102     -9.4159      5.4746
O      7.1985      5.5281      4.3776
C     11.3493     -4.8961      5.5111
C      6.3743      1.4037      7.2047
C      5.2811      1.6151      6.2511
C      3.2995      0.3959      5.9833
H      8.2737      6.7780      5.2084
H      5.9802     -9.2469      8.2391
H      7.8543     -2.6263      9.5713
H     12.6527     -3.7656      6.8253
H      6.1426     12.5632      5.1191
C     15.0240     -7.7468      7.0658
H     -0.3902      4.0353      2.1006
C      3.7927      5.3092      5.1240
C      3.1479      2.9131      8.9893
H      9.1569      8.9192      1.1901
C      8.5735     -5.7386     11.2065
H      3.8518     -7.4324      8.5535
H     -1.6953      6.1544     -2.0609
H      7.0379      0.3511      7.0835
C      3.9156      2.4801      4.3698
C      5.0029     10.0819      5.8614
C      6.4372     -0.4669      8.9112
C      7.6627     -3.2518      8.6100
C      5.7416     -8.1987      8.2468
C      5.8321      0.9069      8.5687
H     12.6228     -8.0807      8.5452
H      2.1917      3.1547     -0.7437
H      6.9045      9.7565      0.3242
H      7.9870     -8.3369     11.5047
H     11.5016     -9.4711      6.0284
C      1.8042     10.1381      1.0915
H      2.5167      4.4140      9.6606
H     10.2273     -2.9859      3.2436
