263

C     19.9947      8.9214     13.9125
C      4.0375      1.7953      7.3696
C      1.9923      2.6766      1.4982
C      7.3479      4.8025      2.4508
C      7.3988      3.4304      2.9246
C      3.0591      3.9106      5.2464
C     -5.8815     10.0830     10.4690
C     16.5216      7.1860     19.5286
C      5.9579      1.9020      4.0005
C     -6.9294      9.1292      9.5539
C     13.8948      8.6715     13.6152
N      0.0302      2.7853      6.6112
C      0.6190      6.0702      0.6045
O     -1.4734      2.4044      1.4113
C      2.9443      4.0330      6.7692
C     15.6533      6.1874     17.5429
C     16.5582     10.5398     16.8312
H    -11.5772     13.3199      9.3022
H     -3.6437      4.3370      5.3698
H     17.4909      6.8158     16.3497
H     -6.9650     10.5361     12.3183
C     17.0105      9.1617     16.5635
H     -8.8837      8.3094     10.9005
H     -5.3352     10.8180      9.8015
H      8.0536      3.2709      3.6921
H     12.7432      7.7299     10.2779
H     -0.7776      5.4547      6.3422
C      2.9339      2.7383      7.5632
H     -3.5083      9.6608     -0.4855
H      6.9474      1.3410      4.1673
O     15.2797     10.1442     14.9780
C     -4.8339     12.6840      8.5429
C      6.5849      6.0817      9.9039
H      3.1207     -0.3226      6.5424
H      3.2958      6.6527      9.0577
C      6.1220      2.6829      2.7215
H      6.2733      5.0394      7.7000
H     -5.2176      9.1797     10.4184
H     -8.0932     10.6438      8.8336
H     -8.3612      7.5984      9.4864
C     17.7101     10.9784     17.7953
C     -3.0544      8.9554      5.0590
O      2.0199      8.5208      5.1177
C     -1.4870      7.8163      7.1251
C      8.6028      8.1273     12.1247
C     20.3674      7.5753     13.1065
C      6.3725      7.2711     -0.5749
H     12.0855      8.9366     11.0984
H      4.6872      4.2388      1.7756
H     17.2104      9.8098     14.5593
H      1.9459     -0.8525      2.8014
H     -4.6532      5.9280      7.9912
H     14.9141      9.8999     15.8451
C      6.9774      6.5375     11.2217
C      7.9023      5.6556      3.6186
H      8.0162      6.9052      2.0428
C     -1.2914      6.7137      4.9289
H      4.3747      0.3011      2.4412
H     -7.2018     11.7488     11.1807
H     15.1903      7.0920     13.4724
C     -3.0849     11.5712      7.7776
C      5.3860      5.5559      9.4121
C     16.0332      7.3541     18.1141
C      4.3850      5.9199      0.5454
C     17.8038      9.3294     15.2308
H     -4.1443      8.2607      4.9422
H      8.5761      7.6936      3.8363
H     -9.6341     14.2189     10.6386
H     -6.4721     12.0857      9.8343
H     17.9262     12.5661     16.4547
C      0.3212      3.9932      8.6374
C     13.6109      8.5547     12.2465
C      1.6802      1.9118      7.7732
H     -1.8736      7.4424      9.4070
C     -0.5466      6.4985      1.3215
H      6.0736      8.1088     -0.9836
H     -2.5102      2.6622      5.2347
H     -7.8444     10.3570     11.0473
C     10.0281      7.3743     12.7761
O     14.5203     11.2560     13.2697
C     -6.5086      8.8303      8.1706
C     16.2384      8.4717     20.4201
C     -9.5887     14.2946      9.5270
C      2.7900      1.3552      4.8459
H     -2.2226     10.4510     -0.6998
H     -6.9323     12.0323      6.6499
H     -9.6518     16.7886     10.9984
C      3.6590      3.0170      3.1682
H     -4.1328     10.3314      6.0442
C     -2.2013      8.5462      0.3938
C     11.3711      6.9760     11.8869
H     -2.2487      9.8708      7.4403
C      5.1582      2.0713      5.1628
H      4.2475     -0.5216      5.4240
H     -5.0172     13.2904      7.7304
C    -10.2593     12.2801      8.1160
C     -8.0738     11.2532      8.1023
C     -2.1071      5.2076      3.5871
C     16.6907      9.3927     19.3506
C      2.2373      3.4937      2.8335
C     -7.9614      8.3822     10.1985
H     16.2011      8.4483     14.4839
H     -4.0161      4.6528      2.1457
H     14.4119     12.0735     13.8982
H      1.6610      3.4670     -0.7667
O      5.8743      6.1547      6.3239
C      0.7027      8.1387      4.4822
H     -8.4675     10.5362      7.5638
C     -2.3410      8.9683      3.5042
C     -1.9211      7.8647      2.9951
H     -6.8766      8.4147      7.1642
C     -2.5784      7.3839      7.8794
H      1.9506      4.1250      5.1649
H     14.0064      8.9416     10.4494
H      5.9742      2.0259      1.6735
H      0.7669      4.8443      9.2378
C      2.9455      1.6155      1.2113
C     -0.0507      8.6488      1.9696
C     -0.5583      3.0942      1.7695
C     -0.4586      4.1232      4.4030
C     -5.4651     10.8469      7.1095
H     -3.5299      7.4295      7.1983
H     15.8499     10.0074     19.1790
O     -0.0482      9.5149      6.3409
C     -6.7560     11.5780      7.6304
C      0.9010      7.0279      6.8371
C     15.1663      8.0440     14.3193
H     15.6249      8.3413     16.2364
C      0.4260      7.7659      2.9898
H     -4.1106     12.5909      9.4200
C      2.6595      0.6444      3.5453
C      0.3995      2.5411      7.9385
C     -2.4165     10.7649      6.7244
C     -2.7676      3.5866      5.7292
C     18.3907     12.1734     17.3371
C     -9.6864     17.0939     10.0258
C      0.7008      2.5218      0.8494
C     -1.3530      8.0302      1.5231
C     -9.0125     12.3383      8.2812
N      2.0047     -0.4866      3.7286
H      3.4453      0.4683     -0.2761
C      2.9788      1.2681     -0.2833
O     16.9512      6.4274     15.5137
C      9.6142      6.2648      0.5593
H     18.6971      8.9166     18.8743
H     -0.2469      2.0403      8.8128
C     -2.8331      4.2568      2.7218
C     -2.7995      7.4107      9.1983
H      1.4351      1.1890      7.0453
H      7.1668      4.4397      0.4548
H     -4.5498      8.9098      6.7857
C     -2.4644      9.5725     -0.3752
H      4.3557      5.1725      9.9184
H      1.7959      7.9574      9.0045
H     -1.0599      9.6897      4.4458
H     15.3854      9.4433     12.0668
H      3.7071      2.1369     -0.7866
H     -0.2602      3.8254      9.6957
C     14.9675      7.5347     15.5718
C     14.3669      9.1118     11.4539
C     -6.8819     10.6906     11.3702
H     16.0382     10.5310     17.8329
C      4.2744      8.0421      4.4106
C      8.0450      7.1088      3.1596
C     21.3294      9.6216     14.7125
C     18.9815      8.6090     14.9221
C      4.4646      5.9650      6.3587
C      1.6455      4.9747      2.6178
C      5.6143      6.1215      0.1709
C      5.7055      7.6655      4.2160
C      7.9299      6.4977      0.8815
C      4.1922      4.9714      7.4239
C      1.6327      5.1400      1.1153
H     -2.3087      5.9412      6.3662
C      6.5582      6.9050      5.5003
H      9.8352      5.6751     -0.3549
C      6.8196      5.4978      0.7580
H     -0.6947      3.2160      3.9101
O      7.7382      6.9279      5.8747
H      8.3648      9.3057     11.6590
H      1.6919      2.9901      3.5347
H      0.0532      9.3195      2.7104
H      3.0951      3.8310      0.0516
H      4.6813      5.0579      4.1845
C     12.3158      7.8614     11.4306
C     15.5751      6.2018     16.0160
H      1.6818      6.0550      9.3724
C     -1.8241      4.5851      4.7943
C      0.5287      6.9096      5.3109
H     16.5600      8.8103     21.4854
H      1.7931      1.8508      5.2310
C      1.1988      5.7382      4.7204
H      2.9721     -0.2875      1.7668
H     16.6205     11.2662     15.8301
H     -0.3891      7.2750      8.7998
C     -5.0595      6.4055      8.9750
C     -8.5285     13.7762      8.6498
C      6.5791      7.9587      3.2244
C     -3.2114     10.2874      5.6113
C     -0.2509      6.4164      2.9693
C     -1.6027      6.4948      3.5094
H      3.5442      6.5441      0.2110
H     -2.3411      3.9044      6.5111
C    -10.7556     13.5975      8.7416
C      0.4284      5.2462      3.5433
C      4.8566      3.5105      2.7069
H      1.2078      4.3640      7.8075
H     -2.5338     12.5814      8.3012
H     -5.4557     10.7372      6.0335
C      2.1678      6.9043      8.9121
C     -1.6355      5.6705      5.7504
C      3.3012      0.5801      2.1579
C      0.9830      5.0036      5.9578
C      2.0397      6.5335      7.4917
C      2.1895      4.0700      0.1643
H     -1.3600      5.7505      1.2477
H      4.0981      1.9274      1.3910
H     -1.3967     11.1844      6.3291
H      5.1364      1.1301      3.6205
C     -0.5242      9.0653      5.1452
C     -4.1963      7.2129      9.7274
H      4.2211      4.7636      0.9166
H     21.7117     10.2657     13.8795
C     -4.3808     11.4046      7.9488
H      9.8385      6.0258      1.5757
H     -2.5185     10.9480      4.6097
H     -6.6010     14.2506      9.5097
C     -0.1471      7.6265      7.6685
C      0.3654      3.7982      5.5532
O      8.8629      5.3570      4.6182
C     -1.5986      8.0074      5.5992
C     -6.6619     14.3003      7.1389
C      5.0590      2.0496      6.5056
C      3.5595      0.4054      5.7915
H      9.8094      5.5177      4.1287
H     -5.7239     14.9004      7.1884
H      5.1702      3.5000      8.5224
H     -4.5592      9.4677      8.6259
H      0.8110      8.8936      6.3564
H     18.9024     12.2385     18.1488
C      1.9058      4.9672      7.1187
H     -0.8720      4.2108      1.9996
C      3.8739      5.2542      5.0872
C     -9.6717     15.9618      9.1442
H     21.6770      8.7847     15.4324
C      8.1515      7.3549     11.0588
H      3.6764      5.5372      8.3739
H     10.7599      6.2384     11.4207
H     -6.1865     13.7730      6.2321
C      3.6823      2.5924      4.9402
C     17.8599      9.5556     18.7126
C     -6.3031     12.4565      8.8504
C     -5.2334      9.3184      7.6875
C      5.3763      4.5405      8.2401
C     -7.0076     13.7644      8.5104
H     -0.4198      4.7849      7.9821
H      0.1599      2.7973     -0.0145
H     19.0844      9.6485     13.4089
H      7.5637      5.8527     11.9176
H     -0.9416      2.3842      6.5020
C     14.3496     10.1202     14.1145
H    -10.0474     17.9211      9.5833
H     -2.8218      9.9034      3.1573
263

C     19.7500      8.9976     13.6937
C      3.9064      1.5985      6.7883
C      2.1232      2.8655      1.3179
C      7.0560      4.8360      2.5030
H     -3.0668      3.7228      3.1593
C      7.2016      3.5635      3.1843
C      3.7908      3.8881      5.3367
C     -6.3500      9.5495     10.1110
C     16.0566      6.9090     19.7800
C      5.9582      1.4426      3.6198
C     -7.1896      8.7110      9.3074
C     13.7321      8.7261     13.5851
N     -0.6098      2.8179      6.2987
C      0.6595      5.9846      0.5661
O     -1.4873      2.7780      1.8172
C      3.6519      3.7839      6.6654
C     15.6175      6.1651     17.4003
C     16.4604     10.3645     16.9832
H    -11.7736     13.5836      9.7699
H     -3.5502      3.3444      4.4129
H     16.3604      5.3173     14.9802
H     -6.9030     10.9184     11.9697
C     16.9357      9.1290     16.4766
H     -8.8319      8.6610     10.6189
H     -5.5223      9.9034      9.8946
H      8.0624      2.8138      3.2591
H     12.8930      7.4012     10.4973
H     -1.2262      5.2707      6.7981
C      2.9908      2.7658      7.5566
H     -1.8869      9.8674     -0.8329
H      6.9175      0.8950      3.5286
O     15.1124     10.3787     15.0311
C     -4.6811     12.5872      9.0223
C      6.6866      6.3775      9.8066
H      2.2750      0.9299      6.5135
H      3.1223      6.6852      8.8310
C      6.1089      2.8141      2.7046
H      6.5797      4.8684      7.4055
H     -5.8149      8.7491     10.7857
H     -8.1021     10.5223      8.5613
C     17.5206     10.7298     17.8984
C     -2.6622      8.7104      5.2177
O      1.8475      8.3901      5.2984
C     -1.4879      8.0333      7.0749
C      8.6301      8.1550     12.2730
C     20.4060      7.7081     13.2401
C      6.3055      7.0390     -0.4244
H      5.1051      4.0606      1.5866
H     17.6492     10.3473     14.8232
H     -4.9832      6.6770      7.8316
H     15.2619     11.3824     14.6638
C      7.0781      6.7018     11.0959
C      7.8733      5.6589      3.4183
H     21.2246      8.9466     15.0029
C     -1.1662      6.7117      5.0084
H     15.1362      8.4330     20.7195
H      3.8523     -0.0367      1.5410
H     -7.9176     11.1780     10.2369
H     14.7970      6.9536     13.0445
C     -2.8688     11.4366      7.9683
C      5.4669      5.7376      9.3290
C     15.8175      7.5232     18.0722
C      4.7426      5.9841      0.4653
C     17.7750      9.3915     15.2877
H     -3.4092      7.9311      5.2132
H      8.4586      7.4607      3.7521
H     -9.3289     14.4946     10.6218
H     -6.7598     12.1920     10.0903
H     18.3413     12.0579     16.5307
C      0.4724      3.6949      8.7693
C     13.4115      8.3844     12.1735
C      1.5038      1.6737      7.6809
C     -0.5315      6.3127      1.4283
H      5.3769      7.6862     -0.6619
H     -2.3994      2.5221      4.0359
H     -8.2553     10.1502     11.5134
C      9.8423      7.5954     12.6668
O     14.8819     10.5695     12.6139
C     -6.6467      8.3496      7.9926
C     16.1738      8.2229     20.4356
C     -9.6629     14.4981      9.5368
C      2.8351      1.0987      4.6506
H     -0.6369     10.0609      0.3795
H     -6.6852     12.5681      7.0313
H     -9.4697     16.3398     10.7879
C      3.8077      3.1476      3.0231
H     -3.7846      9.8111      6.8275
C     -2.0330      8.4520      0.7283
C     11.0339      7.2211     11.3264
H     -1.2838      9.8711      7.6426
C      5.1714      1.9318      4.8341
H      4.1532     -0.1667      5.8696
H     -4.1721     13.5439      9.0617
C    -10.5565     12.3375      8.8093
C     -8.2368     11.4625      8.0197
C     -2.2151      5.2683      3.3477
C     16.6852      9.3591     19.6150
C      2.4603      3.4125      2.7401
C     -8.3767      8.0497     10.0631
H     15.7700      8.6400     13.6162
H     -3.9380      4.8814      1.9201
H      2.2412      3.8440     -0.5969
O      5.3501      6.6246      6.2682
C      0.6561      7.9740      4.2600
C     -2.6107      8.7010      3.7300
C     -1.7957      7.8694      3.0636
H     -7.5774      8.4485      7.3914
C     -2.7188      7.5911      7.6292
H      1.2889      2.9271      4.9752
H     13.8431      8.7373     10.1641
H      7.0179      2.4474      2.2777
H      1.2435      3.9655      9.5012
C      3.0857      1.8758      0.9920
C      0.0782      8.7233      1.9058
C     -0.3977      3.2560      1.6038
C     -0.2001      4.0096      4.1560
C     -5.5001     10.9705      7.2668
H      1.1818      0.2912      4.7295
H     -3.7017      7.3044      6.9599
H     15.7667      9.8147     19.2881
H      0.2115      5.7856     -0.5947
O      0.3825      9.9121      5.8269
C     -6.7440     11.8474      7.9021
C      0.7198      7.0120      6.8312
C     14.9716      7.7301     13.8252
H     15.5273      8.1431     15.6401
C      0.6036      7.6285      2.9723
H     -4.3238     12.3452     10.0352
C      2.5731      0.3191      3.4229
C      0.2775      2.6261      7.5774
C     -1.9806     10.5823      6.9121
C     -2.4370      3.3413      4.7758
C     18.1000     11.9226     17.5900
C     -9.5808     16.8696      9.8648
C      0.8261      2.5780      0.9892
C     -1.2074      7.8140      1.6475
C     -9.2438     12.4369      8.6546
N      1.3625     -0.0523      3.7302
H      4.0049      1.8440     -0.6245
C      3.0096      1.4273     -0.2988
O     16.8359      5.8466     15.5203
C      9.4914      6.5231      0.7398
H     18.8224      9.2846     18.6700
C     -2.9561      4.5231      2.3521
C     -2.7981      7.7283      8.9704
H      1.3675      1.1615      6.7875
H      8.0038      4.8806      0.8243
H     -5.4009      8.7442      6.3789
C     -1.3965      9.5419      0.0823
H      4.7424      6.2957      8.8654
H      1.5340      7.3354      9.5680
H      7.8799      5.7304      6.2169
H     -1.1190      9.7913      4.1070
H     15.2963      8.9709     11.4079
H      2.2690      2.0984     -1.1583
H     -0.0321      3.4019      9.6355
C     14.9852      7.3906     15.3251
H      4.9044      5.2963     10.1642
C     14.3903      8.6560     11.1203
C     -7.3758     10.5625     10.9726
H     15.3775     10.4144     17.7308
C      4.3811      8.0176      4.3271
C      7.7058      7.0685      2.9098
C     21.1183      9.8436     14.3191
C     18.9612      8.7665     15.0115
C      4.1984      6.0410      6.1807
C      1.8620      4.8118      2.4679
C      6.1625      6.1628      0.6467
C      5.6163      7.6016      4.1583
C      8.1315      6.8699      1.3604
C      4.4230      4.7848      7.3986
C      1.6021      5.1017      1.0278
H     -2.6946      6.0547      6.2982
C      6.2811      6.5322      5.2662
H      9.5334      5.6203      0.1467
H      0.7181      1.5740      1.6645
C      7.1319      5.6480      1.2649
H     -0.4653      3.3535      3.2831
O      7.6069      6.4864      5.7463
H      8.6418      9.2541     12.0094
H      1.6619      2.9560      3.4842
H     -0.0536      9.7857      2.4588
H      3.2244      4.8330      0.5492
C     12.2918      7.6434     11.4167
C     15.4142      6.1258     15.8674
H      1.8453      5.8876      9.3102
C     -1.5770      4.5419      4.5058
C      0.3961      6.7543      5.1755
H      1.8571      1.4160      5.1353
C      1.1443      5.6110      4.7783
H      2.6029     -0.2067      1.3591
H     16.4443     11.1473     16.1484
H      0.0837      8.0825      8.8550
C     -5.0681      6.4844      8.9712
C     -8.6958     13.7872      8.6574
C      6.5585      7.9877      3.1820
C     -3.0060     10.0060      5.9631
C     -0.0835      6.3384      2.8939
C     -1.3559      6.4702      3.5223
H      4.2023      6.8008      0.6032
H     -2.5782      3.0192      5.8160
C    -10.9068     13.7954      8.9425
C      0.6192      5.0778      3.4129
C      4.8719      3.5425      2.4849
H      2.0641      4.1359      7.7344
H     -6.0848      7.3826      7.8638
H     -2.3846     12.3014      8.3373
H     -5.3922     11.3418      6.1472
C      2.0205      6.7014      8.7755
C     -1.7728      5.5520      5.7176
C      2.9814      0.5848      1.9507
C      0.9977      4.8372      6.1000
C      1.7990      6.3463      7.4235
C      2.4399      4.1094      0.3588
H     -1.3603      5.6582      1.3853
H      4.0998      2.1696      1.3100
H      2.9897      0.3471     -0.1825
H     -1.3037     11.3627      6.5234
H      4.9669      0.8083      3.5043
C     -0.3100      9.0994      4.8988
C     -4.1051      7.4327      9.5910
H      4.6704      5.0314      0.6763
H     21.7837     10.0509     13.4237
C     -4.2461     11.4472      8.0305
H     10.2902      6.2507      1.5232
H     -3.4248     11.1669      5.6330
H     -6.7312     14.7301      9.3809
C     -0.1124      7.6967      7.7452
C      0.4236      3.4859      5.5309
O      8.6928      5.4510      4.3127
C     -1.4332      8.1782      5.5819
C     -6.4782     14.4552      7.3000
C      5.2073      1.7095      6.2511
C      3.2087      0.5262      5.9750
H      8.8049      6.1422      5.0147
H     -5.7722     15.3646      7.4492
H      5.7072      3.7809      8.4488
H     -4.6158      8.8333      8.1041
H      0.8479      9.6306      6.4518
H     18.6390     12.5383     18.2260
C      1.5344      4.9101      7.2535
H     -0.4326      4.1780      1.1528
C      3.7717      5.3575      4.9211
C     -9.6828     15.9223      8.9313
H     20.8276     10.5808     15.0568
C      8.3445      7.4706     10.9572
H      3.8666      5.3799      8.0574
H     10.4245      6.5927     10.6731
H     -5.4101     13.7938      7.2715
C      3.7652      2.5047      4.4739
C     17.7479      9.7473     18.8347
C     -6.2282     12.7783      9.1520
C     -5.5804      9.2664      7.4639
C      5.8461      4.7364      8.1167
C     -6.9060     14.0084      8.6289
H      0.0825      4.6114      8.8857
H     -1.8888      7.9438      9.3484
H      0.7163      2.4416     -0.0831
H     18.9557      9.1550     12.8485
H     -0.6260      2.0398      5.6102
C     14.4921      9.9957     13.4888
H    -10.3342     17.7028      9.9664
H     -3.0538      9.5236      3.3865
