262

C     19.6991      8.6047     13.6988
N     10.3984     10.4501     14.5329
C      4.1091      1.4873      6.9906
C      2.4625      2.6334      2.5371
C      7.7890      4.7945      2.0652
C      7.7708      3.4733      2.7223
C      3.5352      3.8341      5.2599
C     16.2903      7.1175     19.5162
C      6.6535      1.6726      4.0236
C     -7.2680      8.2373      8.9222
C     13.5016      8.8466     13.7118
N      0.2145      2.2888      6.1053
C      0.7404      6.5075      0.7810
O     -1.1236      2.6652      1.8274
C      3.4049      4.0169      6.7530
H     13.7154      7.2774     11.4325
C     15.4578      6.3457     17.3664
C     16.2356     10.5068     16.2260
H      1.9835      1.5892      9.8249
H     -3.2186      2.6225      5.3009
H     17.5997      6.5260     14.6047
C     16.8079      9.0099     16.1932
H     -7.8761      7.4133     10.6552
H     -8.8695     10.1966      8.8990
H     -1.0989      5.1144      6.7777
H      7.6505      2.0794      7.9556
C      3.3754      2.9107      7.4608
H      7.4780      1.5833      4.7104
O     13.7272     10.5956     15.3597
C     -4.6978     12.6227      8.5289
C      6.3951      6.1157      9.3613
H      4.0359     -0.2928      6.2622
H      3.8644      5.3102      8.2540
C      6.5620      2.8891      3.0201
H      6.3384      3.8852      7.1567
H      4.1942     -0.7570     10.0666
H      2.9746      6.4077      9.2500
C     16.8284     11.0256     17.2795
C     -2.9771      8.4912      4.9602
O      1.8521      8.4382      4.9311
C     -1.2086      8.5241      7.0301
C      8.8253      7.7892     11.9206
C     20.5417      7.6952     12.8731
C      6.5124      7.0114     -0.7939
H      5.8754      4.7958      2.2455
H      1.9894     -0.9060      6.1045
C      7.8557      2.6888      8.8415
H      0.7947      1.4399      1.9237
C      7.1126      6.5731     10.8604
C      8.1998      5.7144      2.9625
H      8.1150      7.8245      2.2420
C     -1.2531      6.6595      5.2938
H     15.8532      8.2784     21.0360
H     16.2966     11.0167     15.2861
H      2.4416      6.0601      0.4063
C     -2.9525     11.2773      7.5575
C      6.6308      4.8075      8.8017
C     16.0172      7.5541     17.9263
C      4.8552      5.1711     -0.3114
C     17.4576      8.7846     14.9066
H     -3.7757      7.7551      5.1036
H      8.3492      7.6556      3.9113
H      3.8292      2.1027     10.5910
H     17.9923     12.1563     16.1073
C     -0.3995      3.2977      8.1522
H     19.5382     10.3836     15.0204
C     12.4733      8.8329     12.5004
C      1.7873      1.6052      7.6571
H     11.5118      6.6631     10.5880
C     -0.4450      6.4378      1.6439
H      5.6432      7.8051     -0.7297
H     18.8863      9.2148     13.2489
C     10.0561      7.4182     12.7123
O     15.3664     10.4856     13.7342
C     -5.8807      8.6017      8.8327
C     16.4922      8.4172     20.1019
C      3.7175      1.6916      9.3664
C      2.5573      1.1052      5.1580
H     11.0113     10.5863     15.3825
H     -7.1847     12.0306      6.7358
H      1.9883      4.3181      9.4990
C      4.2710      3.7659      3.1597
H     -3.2128      8.6737      7.2004
C     11.1164      8.4053     13.3946
C     11.5259      6.6094     11.7741
H     -2.7213     11.6194      5.3256
C      5.4184      2.1426      4.9631
H     16.7499     12.7323     17.1801
C      2.5775     -0.3257      8.9133
C     -8.2868     11.0125      8.2610
C     -2.0863      4.8315      3.8161
C     16.1098      9.3974     19.0919
C      3.0341      3.8864      2.4965
C     -7.7525      7.0197      9.5413
H      1.7817     -0.7231      9.3190
H     15.6035      7.7866     13.2631
H      9.5152      5.2108      4.3626
O      5.8792      6.5234      6.7275
C      0.5562      8.0356      4.5040
H     -9.1039     11.1276      7.4289
C     -2.5908      8.7079      3.4925
C     -2.2153      7.4039      2.9219
H     -5.6770      9.1919      9.6126
H      8.5539      3.4670      3.3989
C     -2.4610      8.4731      7.9055
H      2.3898      3.7143      4.9093
H     12.0388     10.4191     11.0525
H      3.8267      3.6066     -0.1845
H      0.0176      4.3788      8.0785
C      3.0139      1.4193      2.3896
C     -0.1875      8.4442      2.1484
O      4.6746      3.9955      0.2153
O      7.6490      4.0899     11.0493
C     -0.0331      3.1071      1.6644
C      0.4202      3.5088      3.8260
C     -5.6135     10.8338      7.3707
H     14.9844      9.7715     19.0119
H     -0.7093      9.8574      4.1621
H     12.4887      8.0533     10.6824
C     -6.7936     11.4359      7.8641
C      0.8842      7.0525      6.7736
C     14.6600      7.8235     13.7196
H     15.7107      8.3357     15.7148
C      0.6346      7.6286      3.1786
H     -3.7874     13.1058      8.7756
C      1.8899      0.2580      4.1676
C      0.5250      2.2592      7.4807
C     -2.4596     10.6897      5.6572
C     -2.5394      3.2044      5.7252
C     17.5931     12.1768     17.3257
C      2.8563      3.9801      9.9945
C      1.2492      2.2905      1.6294
C     -1.3312      7.7116      1.7733
C      4.0939     -0.6226      9.0039
N      1.2824     -0.6027      5.1320
C      3.8412      1.4526      1.0468
O     17.1951      6.2224     15.2510
C      9.4617      6.3012      0.8279
H     18.1750      9.7420     18.1630
C     -2.5141      3.8118      2.9174
C     -2.9444      7.9822      9.3381
H      8.8446      3.2208      8.5110
H      1.8589      1.2353      6.5416
H      8.3044      3.7169     11.4621
H     -5.1670      9.3019      6.2826
C     10.2207      9.5024     13.7446
H     -8.3243      6.3203      9.0401
H      1.6488      7.3805      9.0481
H     -2.5576      3.3850      6.9107
H     -0.5958      9.3543      2.3635
H     13.5828      9.8351     10.5562
H      4.5495      2.3317      1.1012
H     -0.5576      3.2995      9.2223
C     14.8719      7.5436     15.3755
H      4.4033      0.5816      0.8177
C     12.9545     10.0506     11.6455
H      1.3197     -1.7220      4.3711
C      4.3596      8.1145      4.3033
C      7.8927      7.1297      3.0253
C     20.4121      9.9115     14.2144
C     18.8355      8.2558     15.0149
C      4.4876      6.1631      6.3844
C      2.2085      5.0789      2.3939
C      6.1503      5.8777      0.0872
C      5.6043      7.3701      4.2477
C      8.1337      6.4644      0.5715
H     13.3904     10.8623     12.1490
C      4.4217      5.0377      7.3303
C      1.7551      5.2271      1.0142
H     -2.7401      5.4698      6.4843
C      6.3257      7.0390      5.5601
H      2.1149      1.9045      5.4810
H     -2.7418      3.5891      1.9392
H      1.7360      2.3266      0.6963
C      7.1831      5.6101      0.9608
H     -0.3700      3.1087      3.4063
O      7.4989      7.1928      5.5891
H      8.9882      8.9689     11.7165
H     20.8988      9.5921     15.2619
H      1.0432      2.9134      3.3765
H      1.8922      5.2308     -0.7003
H      8.2487      1.9720      9.4288
H      4.6588      5.5891      3.8465
C     12.7666      7.5466     11.6079
C     15.8035      6.2205     15.7625
H      1.4566      5.7126      8.8703
C     -1.8130      4.2146      5.1308
C      0.2240      6.7667      5.4795
H     17.6206      8.7213     20.6013
H      3.2559      2.1191      4.2627
C      1.0838      5.6635      4.8806
H      2.4344     -0.7825      8.0673
H      1.7419     -0.6515      2.0622
H     -0.1272      7.8213      8.7634
C     -4.9048      7.2122      8.0621
C      4.4459      0.7877      8.3980
C      6.4653      7.6738      3.2002
C     -3.4146      9.7340      5.3439
C     -0.1048      6.0601      2.9808
C     -1.5415      6.3100      3.6954
H      2.4058      3.7407      0.2318
H      4.6506      5.3221     -1.4220
H     -1.5909      2.2754      5.9421
C      2.4486      1.1160      9.1344
H     -1.2318     10.2858      6.0351
C      0.9793      4.9572      3.2892
C      5.5880      3.8154      2.7693
H     -1.3846      3.6167      7.8236
H     -6.9542      9.0242      6.7185
C      7.2401      3.7688      9.6491
H     -2.2774     12.1489      7.3354
H     -5.4550     10.9977      6.3556
C      1.9733      6.4866      8.6670
C     -1.6813      5.5077      6.0801
C      2.1195      0.1950      2.7553
C      0.9442      4.6498      5.9590
C      2.0766      6.2908      7.1907
C      1.5295      4.3038     -0.0980
H     -1.3044      5.9880      1.0963
H      3.9564      1.3276      3.0437
H     -2.6417      8.2012     10.3299
H      3.4277      1.8543     -0.0838
H     -3.9613      7.4024      7.3980
H      6.2396      0.8457      3.2547
C     -0.2042      9.0208      4.8742
C     -4.0139      7.1921      9.4616
H      4.1308      5.9108     -0.0729
H     -3.6667      8.7429      2.7252
C     -4.3290     11.3215      8.0762
H     -2.5610      2.7759      3.2409
H     -3.9109     10.3990      4.7205
C      0.0365      7.5939      7.6919
C      0.3638      3.5299      5.3762
O      8.4628      5.2072      4.4610
C     -1.5442      8.2282      5.5279
C     -6.4635     14.2350      6.9306
C      5.4289      1.8572      6.2977
C      3.6197      0.6618      6.0706
H      4.7583      3.9815      8.9133
H     -6.5577     12.8151      9.7972
H     17.9837     12.0660     18.4432
C      1.8617      4.9458      6.8261
H     -0.2936      4.2284      1.1783
C      3.8560      5.4238      4.8719
C      3.8002      3.2373      8.8476
H     21.0044     10.6030     13.7983
H      0.5805      6.1982     -0.1930
C      8.4080      6.8807     10.7897
H      2.5417      3.2987     10.7137
H     11.8311      5.7954     12.2109
C      4.1426      2.8284      4.4249
C     17.1840     10.1583     18.3807
C     -6.2214     12.5338      8.5976
C     -5.8764      9.3943      7.2615
C      5.5906      4.4414      7.8391
C     -6.9459     13.5706      7.9619
H     -0.7334      4.1399      4.9376
H      9.2011      9.8747     13.1154
H      9.7249      5.0945      0.6934
C     14.2607     10.2174     14.1093
H      3.3640      4.8885     10.3864
H     -2.0417      9.4908      3.5989
