265

C     19.6565      9.2211     13.6252
C      4.0594      1.4209      6.9316
C      2.1030      3.0692      1.1790
C      7.4515      4.9072      2.0533
H     -3.5294      3.8500      2.8549
C      7.2181      3.8047      2.7891
C      3.1077      3.9893      5.4380
C      6.8660     -3.1542     10.2562
C     16.0174      7.3966     19.5418
C      5.9944      1.7297      3.9546
C      6.3869     -4.2976      9.4003
C     13.7972      8.9904     13.8326
N     -0.1157      2.8418      6.2728
C     13.6389     -7.0812      0.6154
O     -1.7321      2.1604      2.0147
C      2.9767      4.1362      6.9487
C     15.5582      6.2736     17.6242
C     16.5506     10.8868     16.6070
H      1.2583      0.8703      9.8685
H     -3.7756      3.4213      5.0846
H      6.2761     -1.0985     10.9751
C     16.7026      9.3272     16.1385
H      7.4757     -2.6105      9.2624
H      7.8258      3.4960      3.6202
H     12.7818      7.1401     10.7329
H     -1.2489      5.3385      6.9088
C      2.8418      2.5617      7.7313
H     10.7505     -2.5316     -0.1057
H      6.8956      1.8494      4.5356
O     14.4357     10.4813     15.3919
C      8.0187     -0.4230      8.8914
C      6.9675      6.0066      9.7716
H     15.6650     -6.6608      9.4054
C      6.0121      2.8358      2.6239
H      5.7369      4.9772      6.9390
H      7.4261     -3.0997     11.2760
H      4.7780     -2.8798      8.7518
H      4.5471     -5.7346     10.4176
C     17.7869     10.8034     17.5942
C     10.1307     -4.2629      4.9544
O     14.7722     -4.4474      4.9425
C     11.1695     -5.2309      7.0088
C      8.8629      8.2823     11.8232
C     20.4463      7.9653     12.9481
C      6.2367      7.3491     -0.8041
H      4.7811      4.5694      1.6058
H     17.8977     10.4958     14.9507
H      1.2597     -0.6678      2.9897
H      8.0965     -7.6908      8.3084
C      7.2474      6.4296     11.0828
C      7.7494      5.7601      2.9082
H     21.4068      9.2945     15.1292
C     -1.1054      6.5286      5.2776
H     15.5321      8.6555     20.8672
H      4.3443      0.4876      2.1587
H      4.8421     -2.0991     10.6094
H     14.9563      7.2971     13.4693
C      9.9950     -1.2505      6.8621
C      5.6625      5.7006      9.1205
C     15.8962      7.7205     18.0466
C      4.4054      6.3020      0.2835
C     17.6074      9.5092     15.1113
H      9.4115     -4.9452      5.0825
H      8.4062      7.6309      3.0178
H      4.1195      1.5087     10.3670
H      6.0959     -0.4448     10.0118
H     17.9177     12.5069     17.1113
C     -0.2746      3.1793      8.9412
C     13.6012      8.4061     12.3760
C      1.7762      1.6535      7.6685
C     12.2929     -6.6516      1.4950
H      5.6058      7.8684     -1.3531
H     -2.5409      2.6217      4.3081
H      5.9110      4.3533      4.4562
H      5.9539     -2.3328     12.0367
C      9.9909      7.4931     12.7083
O     14.2720     11.3319     13.3277
C      6.5301     -4.3393      7.9761
C     16.4905      8.5776     20.3731
C      3.4528      1.4670      9.4657
C      3.1704      1.5587      4.7244
H     12.0650     -3.0677      0.7238
H      5.6516     -0.6808      6.9072
C      3.7589      3.4020      3.1342
H      9.4693     -3.1636      6.3533
C     10.7144     -4.5594      0.6169
C     11.2411      7.2632     11.8771
H     10.9839     -2.7079      7.0256
C      5.1259      2.7804      5.0007
H      8.3217      0.5586      8.4555
C      2.5600     -0.6881      8.7657
C      4.7298     -1.8240      8.4466
C     -2.3463      5.3513      3.6309
C     16.6249      9.6124     19.3808
C      2.4487      3.6581      2.6963
C      5.1726     -5.0401     10.0304
H      2.4594     -1.0376      9.8749
H     15.6460      9.0201     14.2530
H     -3.4219      4.9155      1.7877
H     14.9504     -8.7133     -0.7055
O      5.4555      6.5292      6.2133
C     13.6206     -4.9891      4.5339
H     17.3278     10.4838     19.7580
C     10.3780     -4.1938      3.5971
C     10.9631     -5.1840      3.0889
H      6.1136     -4.9874      7.1117
C      9.9537     -5.0620      7.6412
H     14.8279      8.2374     10.6276
H      6.0957      2.4788      1.4456
H      0.6056      3.3263      9.5769
C      3.3033      2.0893      0.9901
C     12.7958     -4.3009      2.2323
C     -0.7271      2.7154      1.5992
C     -0.2535      3.9208      4.2545
C      7.2949     -2.0789      7.0731
H      1.9583     -0.7234      4.6596
H      9.0277     -5.4092      7.1941
H     15.7964      9.7689     18.7409
H     13.6525     -7.1631     -0.4052
O     13.0493     -3.4214      6.3777
C      6.0265     -1.2595      7.7535
C     13.4665     -6.2251      6.8871
C     15.0519      8.1516     14.1168
C     13.4035     -5.4551      3.0476
H      8.6350     -0.9151      9.7584
C      2.8292      1.0003      3.5402
C      0.4337      2.3942      7.6506
C     10.7074     -2.0558      5.8624
C     -2.6441      3.4032      4.8756
C     18.3715     12.0615     17.8365
C      3.0572      3.8465      9.8687
C      0.6889      2.4180      0.8783
C     11.5238     -5.1169      1.6613
C      3.9340     -0.7738      8.3191
N      1.8654      0.0160      3.6321
H      3.2963      1.7871     -0.9329
C      3.0636      1.1708     -0.1807
O     17.0400      6.3270     15.5582
C      9.3953      6.6136      0.6268
H     19.0593      9.4132     18.4292
H     -0.0257      1.5887      8.0253
C     -2.9364      4.6182      2.6847
C     10.0922     -5.2716      9.0370
H      2.1282      0.9727      6.7170
H      7.8185      5.1450     -0.0476
H      7.5219     -3.8205      6.2404
C     11.0173     -3.3361      0.4442
H      4.5433     -4.8564      9.2134
H     14.5364     -5.0716      9.0806
H     12.4088     -3.2444      4.4823
H     15.5312      8.9385     12.3181
H      1.8141      0.7544     -0.5348
H     -0.6859      2.3156      9.5581
C     14.9014      7.3981     15.5414
H      5.5320      6.6895      8.9696
C     14.6564      8.6760     11.6447
C      5.9944     -2.2980     10.9003
H      3.4929      3.4609     10.7592
H     15.7969     11.0523     17.3138
C      4.2031      8.2716      4.3699
C      7.6116      7.1290      2.4752
C     20.8677      9.8275     14.4735
C     18.6464      8.5499     14.8847
C      4.0339      6.0678      6.5044
C      1.9232      5.1204      2.5626
C      5.7884      6.3079      0.3237
C      5.5523      7.5799      4.0816
C      7.9414      7.1071      0.9986
C      3.9669      4.8455      7.5229
C     14.6814     -7.6798      1.1446
H     -3.0200      5.3600      6.3731
C      6.1564      7.0353      5.1960
H      9.4903      5.6409      0.3052
H      1.0001      1.5149      1.0341
C      7.1219      5.5841      0.7796
H     -0.6469      3.1598      3.5238
H     11.2791     -5.4118      9.2723
O      7.4972      7.0842      5.7679
H      9.1703      9.3393     11.7257
H      1.5581      3.1796      3.3379
H     16.3646     -8.1892      0.3718
H      4.7343      5.6467      4.5775
C     12.4147      7.8850     11.6892
C     15.7733      6.2123     16.1291
H     14.0576     -7.4143      9.2135
C     -1.8282      4.4152      4.6890
C      0.4652      6.6636      5.5183
H      4.4978     -4.4116     10.6134
H      2.6055     -0.1622      6.4253
C      1.3655      5.5804      4.8218
H      2.3109      0.3121      1.9481
H     16.3150     11.8122     16.1340
H     12.4597     -5.9299      8.6510
C      8.1540     -7.0729      9.0128
C      4.3584      0.7313      8.3577
O      6.1479      3.8489      5.0859
C      6.5246      7.8974      2.7909
C      9.5770     -2.9839      5.3979
C     12.7554     -6.7624      3.0265
C     -1.4965      6.4962      3.7470
H     17.0945      8.4661     21.1368
H      3.8980      7.2092      0.4274
H     -2.7568      2.9391      5.7761
C      2.2076      0.6341      9.1061
C      0.5423      5.0523      3.6007
C      4.8206      3.8133      2.5426
H     13.9475     -8.8904      7.4253
H      7.9118      8.1972      9.9795
H      8.0766      4.4808      4.6049
H     10.3531     -0.3056      7.5015
H      7.1747     -1.7617      6.0810
C     14.7939     -6.2985      8.8498
C     -1.8983      5.4162      5.9575
C      3.3910      1.0472      2.1223
C      1.5251      4.4722      5.5843
C     14.7865     -6.4507      7.2866
C     15.2868     -8.7462      0.2893
H     11.4003     -7.3914      1.4079
H      4.1848      2.8173      0.8634
H      3.8070      0.3998      0.0168
H     11.8102     -1.5592      5.9338
H      5.5964      0.8944      3.5285
C     12.6096     -4.2031      5.1131
C      9.1250     -6.2452      9.5778
H      4.2497      5.2153      1.0957
H     21.7657     10.0393     13.9819
C      8.7227     -1.5373      7.5836
H      9.9829      6.5432      1.4751
H      5.6420      1.7544      9.5529
C     12.4360     -5.7422      7.6207
C      0.7311      3.1475      5.2164
O      8.0180      5.5148      4.4960
C     11.4197     -4.8524      5.4923
C      6.3364      1.6669      7.2236
C      5.1927      2.0969      6.3640
C      3.1320      0.8494      5.9258
H      7.8198      7.6029      6.6296
H      6.1359      3.8804      7.9726
H      8.6010     -3.7593      8.0051
H     14.0365     -3.8128      6.2103
H     19.3002     12.4292     17.9969
H      2.0003     -1.5999      8.5025
C     14.6338     -8.1000      6.9423
H     -0.8225      3.7924      1.2949
C      3.7214      5.4149      5.0758
C      3.0573      2.8570      9.0341
H     20.5128     10.7950     14.7543
C      8.4242      7.3808     10.6287
H      3.7687      5.5944      8.3640
H     10.9243      6.6710     11.0804
H      7.3963      1.5532      6.9787
C      3.7889      3.0643      4.4015
C     17.6939      9.6017     18.5152
C      6.4820     -0.3533      8.8281
C      7.7165     -3.4186      7.3769
C      5.4901      4.7159      7.9315
C      5.8483      1.0627      8.4781
H     -0.7630      4.1084      8.4502
H      0.6073      2.9224      0.0230
H     19.0440      9.6179     12.9571
H      7.9676      5.3015     11.1090
H     -0.5276      1.9564      5.8249
C     14.1872     10.3459     14.1408
H      3.0923      5.0453      9.6400
H      9.9508     -3.0209      3.3949
