265

C     19.7542     -4.3198     13.5604
N     -1.7699     10.4853      1.4774
C      3.9453      1.3598     20.0195
C      2.3521      2.6329      2.1529
C      7.7626      4.5071     14.8029
H      9.9296     -6.1851     15.4269
C      7.6294      3.1419     15.4625
C      3.2755      3.9064      5.4832
C     16.4065     -5.8798     19.3931
C      6.2631      1.9616     17.0535
C      5.5674      8.3588      9.6255
C     13.5358     -4.1827     13.6765
N     -0.2669      2.7371      6.2612
C      0.0457      5.9650      0.3588
O     -1.5135      2.3689      0.8739
C      2.9226      4.0310      6.8737
H     -0.3891      6.1739     -0.7212
C     15.9077     -6.6567     17.2206
C     16.4525     -2.7185     16.3303
H      1.6569      1.5680     23.2240
H      9.4190     -9.4650     17.8220
H     17.5234     -7.1015     15.5174
C     16.9520     -4.0889     16.0523
H      4.1165      6.4504      9.8744
H      5.3395      8.6877     10.5601
H     12.2385     -7.6182     19.8554
H      8.0028      2.4076      8.1066
C      2.9724      2.5951     20.5718
H      6.8878      1.2497     17.4312
O     14.1614     -2.2166     15.0488
C      8.0955     -0.1518     21.4387
C      6.3365      5.9358      9.5481
H      2.3089      0.0820     19.9988
H      4.0189      5.3802      8.6924
C      6.5406      3.2100     16.4127
H      5.7577      3.1616      7.8415
H      4.4369     -2.5164     22.4731
H      1.1172      5.6285      9.3932
C     17.3865     -2.4328     17.5697
C      9.9009     -4.3801     17.7940
O     15.0582     -4.3950     17.5650
C     -1.2139      8.4543      7.0735
C     -4.5595      8.1199     11.7036
C     20.4784     -5.3151     12.6970
C      6.5220      6.7212     11.8703
H      5.9716      4.7756      2.2872
H     17.0942     -3.6112     14.0647
H      1.5362     -1.1300      5.2029
H     -3.6981      6.6922      7.4789
H     14.8064     -1.4878     13.1080
C      7.7768      2.5843      9.1361
C      6.9928      6.6330     10.5087
C      7.9915      5.3420     15.9006
H      8.2458      7.0483     14.7765
C     12.0417     -6.0024     18.1120
H     16.3711     -4.2672     21.0674
H      3.8975     -0.2869      2.5828
H     14.6179     -5.9103     13.3160
C      9.3283     -1.2444     19.8717
C      6.2507      4.6537      8.9554
C     16.0292     -5.5965     17.9496
C      5.0454      5.0178     12.3248
C     17.6461     -4.2866     14.7378
H      9.1701     -5.0269     17.9248
H      8.3057      7.4787     16.3794
H      3.6951      2.1458     23.3480
H      6.9889     -0.4898     23.1832
H     17.8591     -0.5166     17.1365
C     -0.3387      4.2602      8.5438
H     21.7751     -3.6688     13.6933
C     -0.0243      8.8765     -1.0862
C      1.5863      1.9633     20.7033
H     -2.2239      8.2653      9.8564
C     -0.7691      6.4563      1.2967
H      5.4442      7.1209     12.0767
C     -2.5894      7.4245     -0.5021
O     15.3327     -2.1822     13.0511
C      6.3082      8.5603      8.4953
C     16.8280     -4.6099     20.1205
C      3.4409      1.7395     22.4580
C      2.4008      1.4119      4.7366
H     -2.6029     11.0988      1.8348
H      1.8388      3.7815     22.1739
C      4.0020      3.5475      3.2904
H     -3.2415      8.1022      6.7515
C     -2.2650      8.4894      0.5435
C     -1.8900      6.9692     -1.5172
H     11.6573     -2.2464     19.3337
C      5.0427      2.1036     17.9410
H      3.5324     -0.3233     18.6640
C      2.5344     -0.3556     21.9824
C      4.4946     -1.6350     21.4757
C     10.6215     -7.5818     16.8319
C     16.7215     -3.5073     19.2827
C      2.8226      3.7847      2.6562
C      5.1299      6.7819      9.3170
H     15.5008     -4.5374     13.2392
H      9.8104     -6.8132     17.0815
H      2.6985      5.3822     -0.7027
O      5.7348      6.1265      6.7528
C     13.6534     -4.5934     17.3573
H      3.8915     -2.2153     20.8502
C     10.1051     -4.2941     16.3624
C     10.7375     -5.3710     15.7223
H      6.6705      7.7472      7.8363
H      8.4466      2.5060     15.9918
C     -2.6359      8.5722      7.6418
H      2.3876      3.9349      4.6580
H      0.8193     10.5911     -2.6092
H      4.1387      3.3008     13.6911
H      0.0919      4.9715      8.0109
C      3.4216      1.5999      1.9004
C     12.7256     -4.4299     14.8595
O      4.2687      3.5512     12.7026
O      7.1343      4.0415     11.0911
C     -0.4751      2.9350      1.2924
C      0.0694      4.0439      3.9284
C      6.9623     10.7429      7.4495
H     -2.9981      9.5114      7.5134
H     16.6635     -2.7351     19.6820
H     12.4764     -2.7759     17.1176
H      0.0414      8.0073     -2.4440
O     13.2324     -3.1846     18.9079
C      5.8397     -1.2831     21.1274
C      0.6236      7.0609      6.7083
C     14.8806     -5.0350     13.7729
C     13.4003     -5.2638     15.9196
H      8.9194      0.2401     21.6665
C      2.4470     -0.0400      3.9652
C      0.1789      2.7488      7.7274
C     10.3686     -1.9366     19.0264
C     10.3692     -9.1888     18.6207
C     17.7761     -1.0838     17.8944
C      2.7451      3.8147     22.6010
C      0.8820      2.0721      1.6266
C     -1.4034      7.8727      1.5845
C      3.9529     -0.4212     21.9142
N      2.2619     -1.1255      4.4897
C      4.3427      1.2490      0.6453
O     16.9897     -6.8612     14.7124
C     -3.3135      6.4668      0.2671
H     18.7318     -3.8706     18.6680
H     -0.4027      2.2512      8.6454
C     10.2395     -8.4120     15.5691
C     -3.0199      8.4437      9.1230
H      8.5453      1.9726      9.6798
H      1.3598      1.5994     19.7588
H      7.6137      3.6253     11.7771
H      7.4655     10.1370      9.6586
C     -2.2581      9.9037      0.3639
H      4.9821      6.5831      8.1783
H      2.7772      6.8441      9.3592
H     12.6237     -3.6545     15.7539
H      1.7681      9.7889     -1.3342
H      4.1814      0.1854      0.4720
H      0.0966      3.6108      9.5571
C     14.7921     -5.4702     15.2118
C      0.8717      9.6149     -1.8549
H     15.4128     -3.0192     16.7772
C      4.4291      8.1783     17.2388
C      7.7933      6.7827     15.6780
C     20.8520     -3.2369     13.8624
C     18.8260     -4.8351     14.6647
C      4.3480      5.8886      6.5278
C      1.8281      5.0333      2.3528
C      6.4909      5.5515     12.7261
C      5.5770      7.2921     16.8671
C     -4.5565      6.5920      0.4375
C      4.0778      4.7975      7.4952
C      1.3416      5.2635      0.9381
H     10.6228     -6.8480     19.1889
C      6.6992      6.7572      5.4822
H     -1.2089      2.6791      6.2832
H      7.3645      2.3530     14.8828
H      9.3267     -8.3746     15.1925
H      0.8925      2.6530      0.6343
C      7.5521      5.3122     13.5331
H     -0.8382      4.1101      3.6970
O      7.4885      7.7547      6.0518
H     -4.3737      9.1100     11.6167
H     20.2255     -2.2344     13.8807
H      0.6267      3.4019      3.2271
H     -0.8756     10.7693      1.0833
H      2.8495      4.0029     -0.1214
H      4.7287      5.5908      4.2968
C     -0.6631      7.9265     -1.7106
H      7.1239      5.8676      4.7859
C     15.7743     -6.5479     15.7681
H      1.6090      7.9027      9.3932
C     11.0180     -8.1553     18.0617
C     13.4742     -5.8366     18.2329
H      1.5862      2.1684      4.9718
C      1.4417      6.0174      4.6910
H      1.7955     -1.2397     22.3031
H      2.0435     -0.0267      1.9107
H     15.7176     -2.1024     15.3369
H     -0.7114      7.9116      8.9992
C     -3.8824      6.1764      8.5859
C      4.3521      0.9274     21.4693
C      6.4165      7.3284     15.8565
C      9.7952     -2.9290     18.1482
C     -0.1632      6.4661      2.7245
C     11.5124     -6.2709     16.6408
H      1.2988      3.9848     -0.7682
H      5.2414      4.9561     11.2348
H     10.3017     -8.8965     19.7080
C      1.9981      1.1233     22.2255
H     -0.4401      9.4035      6.8996
C      0.7697      5.4691      3.3784
C      5.4532      3.9199      2.9172
H      1.2765      4.3562      7.7492
H      8.1460      9.2039      8.1252
C      6.9673      3.5319      9.7742
H      9.8738     -0.4502     20.2984
H      6.6721      9.9040      6.6470
C      1.7410      6.5989      8.9427
C     11.5159     -7.1481     18.9258
C      3.0243      0.3135      2.5739
C      1.2064      4.8680      5.7720
C      1.8187      6.5806      7.4689
C      2.0734      4.6036     -0.1852
H     10.9087     -7.7368     14.6599
H      4.2986      1.9014      2.5337
H     -3.4308      9.2927      9.6464
H      5.4564      1.5596      0.4751
H     -4.6771      5.5518      8.9131
H      5.9969      1.2746     16.2660
C     12.7025     -3.6918     17.7626
C     -3.9019      7.3322      9.3193
H      9.2645     -3.9087     15.6568
C      8.0723     -1.0388     20.3082
H      8.6670     -2.5086     17.9290
H      5.9852      1.7341     22.4146
C     -0.4677      7.4528      7.7193
C      0.1609      3.9378      5.4177
O      8.3124      4.8923     17.0074
C     -1.6394      8.2011      5.4005
C      6.1452      1.3483     20.1122
C      4.9960      2.0087     19.3157
C      3.0915      0.4019     19.2177
H      7.9945      7.0756      6.5861
H      7.2530      1.5540     20.2145
H      4.5368      3.3131     21.2962
H     14.2997     -3.1864     18.7332
H     18.5005     -0.9711     18.7754
C      1.8524      5.0969      7.1576
H     -0.2281      4.1874      1.3169
C      4.0335      5.1958      5.0635
C      3.6292      3.0552     21.6889
H     21.2485     -3.4093     14.9943
C     -4.7085      7.3956     10.5267
H     -1.4377      5.8717     -1.4332
H      5.9544      0.3283     19.4563
C      3.7024      2.7474      4.4747
C     17.6328     -3.6575     18.1193
C      6.6775     -0.2251     22.0604
C      7.3103      9.6472      8.4703
C      5.3896      4.1258      7.9704
C      5.9864      1.1436     21.5497
H     -1.3272      4.0032      8.4517
H     -2.9605     10.1418     -0.2482
H     18.7161     -3.8400     13.1055
H     -2.4717      5.8464      0.7716
C     14.2006     -2.8762     14.0061
H     10.7167     -3.5355     16.3785
