270

C     19.5999      9.0472     13.5987
C      3.8899      1.6314      6.9381
C      1.8860      3.0388      1.3650
C      7.3014      4.8154      2.2125
H     -3.1421      3.5730      2.8939
C      7.2521      3.6322      2.5969
C      3.1583      4.0526      5.7641
C      6.9836     -3.1443     10.0956
C     16.0915      7.1547     19.5276
C      6.2072      1.8029      3.8625
C      6.1892     -4.2108      9.3451
C     13.9380      8.8108     13.8465
N     -0.1568      2.6856      6.5701
C     13.4985     -6.8149      0.6137
O     -1.5047      2.0504      2.0909
C      3.1458      4.1717      7.2410
C     15.5456      6.2501     17.3730
C     16.5538     10.8241     16.7767
H      1.4734      0.6654     10.1609
H     -3.4092      3.4435      4.8226
H     17.2166      7.5380     15.4476
H      5.9858     -1.2184     10.8113
C     16.7956      9.3995     16.2358
H      7.7549     -2.4864      9.6423
H      7.9990      3.0184      3.1852
H     12.9296      7.5528     10.5526
H     -0.5856      5.0410      6.6798
C      3.0282      2.7914      7.6543
H     10.8145     -3.0037     -0.8056
H      7.1571      2.0114      4.3865
O     14.5929     10.6611     15.1636
C      8.0303     -0.2341      8.5679
C      7.2258      5.9096      9.8097
H     15.8986     -6.5617      9.3055
C      6.1030      2.7127      2.4785
H      6.3670      5.0002      7.1796
H      7.5092     -3.5268     11.1250
H      5.0529     -2.5174      8.5822
H      5.6072     -5.9394     10.3361
C     17.6409     10.8037     17.8546
C      9.8048     -4.4570      5.0367
O     14.8590     -4.2185      4.8862
C     11.1924     -5.1895      6.9286
C      8.8892      8.2285     12.0967
C     20.5240      8.0084     13.0283
C      6.4965      7.2483     -0.7875
H      4.8815      4.4582      1.9310
H     18.0112     10.5712     14.9095
H      1.6774     -0.6760      2.8121
H      8.0274     -7.1814      8.0270
C      7.2762      6.6893     11.1204
C      7.7092      5.8432      3.1480
H     21.1526      9.0510     15.0075
C     -1.1438      6.6441      5.1503
H     15.0312      8.9545     20.6336
H      4.2651      0.9237      2.7495
H      4.8761     -2.8352     10.3917
H     15.8207      7.4819     13.9330
C      9.7924     -1.1083      7.1100
C      6.0480      5.7948      8.9512
C     15.8106      7.6047     17.9695
C      4.5746      5.9700      0.3377
C     17.4420      9.6475     14.9197
H      9.1969     -5.3028      5.4920
H      7.9165      7.8694      3.2675
H      3.6680      0.8928     10.3009
H      6.2468     -0.7347      9.4628
H     17.9371     12.6073     16.9265
C      0.1437      3.5938      8.7840
C     13.5298      8.2587     12.4301
C      1.8736      1.7342      7.8725
C     12.4011     -6.5603      1.4739
H      5.6293      8.0763     -0.9345
H     -2.3005      2.3629      4.2252
H      5.5443      4.2546      4.1225
H      6.0019     -2.3649     11.9971
C      9.9684      7.5547     12.8676
O     14.3664     11.3707     13.1307
C      6.3608     -4.3669      7.9363
C     16.0474      8.5726     20.1576
C      3.4420      1.5858      9.3915
C      2.8461      1.6763      4.8717
H     12.4625     -3.2702      0.2089
H      5.9780     -0.8798      6.2914
C      3.7936      3.2649      3.2729
H      8.9129     -2.9849      6.4375
C     10.9387     -4.4264      0.7402
C     11.1932      7.1875     11.7285
H     11.1640     -2.4999      6.9699
C      5.2353      2.6005      5.0812
H      4.4769      0.2987      5.3465
H      8.7090      0.8165      8.4024
C      2.7360     -0.6631      9.2214
C      4.8918     -1.6967      7.8631
C     -2.1537      5.1712      3.6600
C     16.5664      9.8004     19.3846
C      2.4913      3.5650      2.8036
C      5.0799     -4.8498      9.9279
H      3.0751     -0.3440     10.2106
H     15.9358      9.1329     14.7093
H     -3.5384      5.1395      1.8054
H     14.9138     -8.6067     -0.7044
O      5.4719      6.7169      6.4921
C     13.3846     -4.9175      4.6679
H     16.9008     10.8765     19.9863
C     10.0720     -4.1073      3.5532
C     10.8456     -5.0995      2.9317
H      5.3157     -4.5623      7.5247
C     10.0667     -5.3906      7.6448
H      1.1145      2.3590      4.8247
H     14.4871      8.2534     10.7498
H      5.4655      2.0639      1.7422
H      1.0170      3.8578      9.1144
C      3.1039      1.9860      0.9312
C     12.8798     -4.2538      2.0866
C     -0.8736      3.2052      1.7334
C     -0.1635      3.7658      4.0990
C      7.5242     -2.1763      7.1877
H      1.9432     -0.6822      4.5810
H      9.3041     -4.9847      6.9003
H     15.7422      9.6526     18.8547
H     13.4225     -7.9570      0.0515
O     12.6753     -3.1753      6.2054
C      6.2561     -1.2812      7.3392
C     13.6069     -6.0632      6.7722
C     15.3081      8.3183     14.3226
H     15.5306      8.6903     16.2766
C     13.5914     -5.0965      3.0567
H      8.4235     -0.7040      9.7657
C      2.3091      1.2067      3.6338
C      0.4871      2.1918      7.9876
C     10.6972     -2.0716      6.2073
C     -2.5368      3.0766      5.0055
C     18.4021     11.8700     17.7991
C      2.8426      3.9212      9.8038
C      0.3453      2.7854      0.8852
C     11.6582     -5.1450      1.6231
C      4.1108     -0.7602      8.5087
N      1.9522     -0.1454      3.7124
H      3.7223      2.1014     -1.3563
C      2.8369      1.4150     -0.6716
O     16.9271      6.4602     15.6132
C      9.4340      6.4067      0.7040
H     18.7048      9.3035     19.0590
H     -0.1360      1.4376      8.3266
C     -2.9773      4.6776      2.6704
C     10.2630     -5.4992      9.0853
H      1.3341      1.1143      7.1534
H      7.6211      5.0749      0.1232
H      8.2439     -3.9470      7.0705
C     11.2854     -3.1603      0.3260
H      4.3669     -5.3948      9.0772
H     15.4323     -5.1606      8.8129
H     11.8442     -3.2246      4.4961
H     15.4194      9.1738     11.9737
H      1.8148      1.5501     -0.6816
H     -0.5550      3.6889      9.5820
C     15.0713      7.7261     15.7292
H      5.8953      6.6716      8.1172
C     14.5261      8.7211     11.6821
C      6.0506     -2.4284     10.8819
H      2.6983      3.5550     10.9247
C      4.1771      8.4008      4.5215
C      7.3301      7.1870      2.5766
C     20.8154      9.7953     14.4907
C     18.5366      8.6242     14.5244
C      4.1872      6.0355      6.3346
C      2.1284      5.1487      2.4525
C      5.9414      6.1650      0.1093
C      5.4253      7.7614      4.1339
C      8.0648      6.8451      1.0165
C      4.4028      5.2163      7.5642
C     14.6415     -7.5454      1.1881
H     -2.4396      5.4687      6.1791
C      6.1297      6.8301      5.2142
H      9.6616      5.5257      0.0110
H      0.2022      1.6559      0.8159
C      7.0479      5.5920      0.8601
H     -0.2944      3.3538      3.1007
H     11.2109     -5.7331      9.4248
O      7.4297      7.0350      6.0011
H      9.3469      9.3117     11.7562
H      1.6958      2.9822      3.3083
H     12.4001     -3.5761      2.3662
H     16.4546     -8.4386      0.2907
H      4.7064      5.1578      4.7631
C     12.7563      7.3151     11.6672
C     15.6689      6.4021     15.9263
H     13.8946     -6.3121      9.3183
C     -1.5358      4.2548      4.5465
C      0.3512      6.8015      5.4103
H      4.4322     -4.1997     10.5778
H      2.6027     -0.0555      6.2028
C      1.1594      5.7314      4.8529
H      2.7991      0.2091      1.8213
H     16.7017     11.4767     16.0762
H     12.8489     -5.4452      8.4830
C      8.3414     -7.1275      9.1300
C      4.2346      0.8703      8.3628
O      5.9811      3.8306      4.9301
C      6.0736      7.8100      2.8200
C      9.6116     -2.9946      5.5586
C     12.8543     -6.5492      2.8736
C     -1.6216      6.4475      3.5379
H     16.7054      8.5658     21.1069
H      4.3431      6.7795     -0.7771
H     -2.2484      2.7567      5.9275
C      2.0415      0.7669      9.0487
C      0.6960      5.1196      3.5059
C      4.8684      3.6734      2.7111
H     14.0847     -8.1677      7.9533
H      8.2654      8.2077     10.0201
H      8.1910      4.6553      4.7564
H     10.6446     -0.3690      7.6112
H      7.5319     -1.7738      6.1616
C     14.9941     -6.2380      8.8415
C     -1.3895      5.3052      5.8208
C      3.2405      1.1275      2.2971
C      1.5773      4.5539      5.7577
C     14.8940     -6.5150      7.1622
C     15.3570     -8.6199      0.3991
H      3.7185      2.7420      1.1996
H      3.0575      0.3513     -0.4615
H     11.4898     -1.5534      5.4268
H      6.1346      0.6894      3.6469
C     12.0867     -4.0364      5.1125
C      9.3593     -6.4082      9.7772
H      3.7697      5.4620      0.7692
H     21.5199      9.9278     13.6141
C      8.6684     -1.3568      7.7961
H     10.0666      6.5177      1.6347
H      8.6033     -2.4866      4.9176
H      5.8017      1.6126      9.3252
C     12.4960     -5.5168      7.4915
C      0.5909      3.2559      5.4278
O      7.7631      5.3630      4.3862
C     11.1237     -4.9283      5.4566
C      6.3845      1.7721      7.3254
C      5.3084      1.9697      6.4760
C      3.4769      0.6734      5.8907
H      6.9043      7.1804      7.0086
H      5.7995      3.7345      8.3191
H      8.3431     -3.4149      8.3173
H     13.0913     -4.0313      6.8615
H     19.0550     12.5369     18.1443
H      2.1147     -1.6437      9.6762
C     14.6842     -7.9684      7.1642
H     -1.0656      4.0962      2.2385
C      3.7187      5.3443      5.1300
C      3.1365      2.8005      9.1647
H     20.4118     10.7851     14.4756
C      8.5297      7.4251     10.8753
H      3.9482      5.7927      8.3253
H     10.8847      6.7011     10.7304
H      7.1184      2.3285      6.7787
C      3.7245      2.7193      4.7571
C     17.7220      9.4389     18.4685
C      6.4998     -0.3759      8.4137
C      7.5050     -3.5295      7.5744
C      5.7475      4.7343      7.9537
C      5.7746      1.1041      8.4912
H     -0.3124      4.1750      7.8564
H     10.0135     -4.3884      9.7030
H     -0.1767      3.1613      0.0025
H     18.8857      9.6164     13.0615
H      7.6635      5.6971     11.7464
H     -1.0424      2.5017      6.2449
C     14.3110     10.3736     13.9468
H      3.3004      4.6718      9.0305
H      9.8744     -3.0633      3.1930
270

C     19.6973      9.1577     13.6554
C      3.9848      1.5083      7.1475
C      1.9390      3.0178      1.2257
C      7.4558      4.9953      2.0980
H     -2.4799      3.6617      2.5461
C      7.1455      3.5709      2.6022
C      3.1761      3.9962      5.6186
C      6.9819     -3.1460     10.2251
C     16.0240      7.2755     19.4197
C      6.0702      2.0592      3.9414
C      6.3450     -4.4128      9.3732
C     13.8334      8.8083     13.8301
N     -0.0990      2.7145      6.4165
C     13.7078     -6.9566      0.6276
O     -1.5312      2.1276      2.1638
C      2.9582      4.0894      7.2473
C     15.5601      6.3137     17.5226
C     16.5098     10.5533     16.9559
H      1.2044      1.1418      9.6411
H     -3.4846      3.2861      4.8676
H     17.0568      7.4605     16.0211
H      6.0391     -0.9783     10.8890
C     16.7049      9.3819     16.1547
H      7.5251     -2.3745      9.5738
H      7.8574      3.7355      3.5847
H     13.0606      7.2778     10.5302
H     -0.9839      4.5287      6.5122
C      3.0680      2.6129      7.7540
H     11.0062     -2.7713     -0.6318
H      7.1193      2.1818      4.2018
O     14.6324     10.6956     15.2411
C      7.8914     -0.4626      8.7298
C      6.9999      5.9694      9.9264
H     15.4064     -6.9568      9.2919
C      6.0236      2.5852      2.5261
H      6.4286      5.0418      7.0329
H      7.1640     -3.8948     11.0424
H      4.6093     -2.8676      8.0242
H      4.9624     -5.9870     10.2533
C     17.6772     10.8195     17.7205
C      9.8239     -4.3458      5.0127
O     14.7383     -4.3670      4.8420
C     11.1936     -5.2158      7.0251
C      8.9596      8.2776     12.0204
C     20.4324      7.9630     12.9765
C      6.3923      7.3908     -0.7007
H      4.7363      4.3711      1.7628
H     18.0565     10.5900     14.9273
H      2.3917     -0.7257      3.2125
H      8.5650     -7.1462      8.0061
C      7.2642      6.5355     11.2074
C      7.7452      5.8307      3.1730
H     21.0110      9.3469     15.2760
C     -1.1778      6.5898      5.1470
H     15.0890      8.7643     20.4189
H      4.2634      0.7615      2.5302
H      4.7671     -2.5633     10.7242
H     15.6860      7.5291     13.3756
C      9.8269     -1.0089      6.9545
C      5.8325      5.7477      9.1756
C     15.6641      7.6244     18.1261
C      4.5687      6.1843      0.2210
C     17.4737      9.6699     15.0474
H      8.8523     -5.0374      5.1335
H      8.1329      7.8764      3.3098
H      4.1078      1.8198     10.4526
H      5.8874     -0.7175      9.3668
H     17.8908     12.7774     17.1124
C     -0.0823      3.4829      8.9102
C     13.6227      8.3437     12.4387
C      1.7986      1.6145      7.6587
C     12.3389     -6.5465      1.5348
H      5.9334      8.0165     -1.4155
H     -2.3450      2.2702      4.5173
H      5.5426      4.3897      4.3749
H      6.1491     -2.6397     11.9715
C     10.1592      7.5972     12.6360
O     14.4084     11.4012     13.1965
C      6.4397     -4.4840      8.0198
C     16.2676      8.5876     20.3272
C      3.4974      1.3236      9.6208
C      2.8401      1.4610      4.7786
H     12.5274     -3.3445      0.5177
H      6.0382     -0.5570      6.6864
C      3.7093      3.2932      3.2256
H      9.5714     -3.3093      6.5970
C     10.8015     -4.5183      0.7184
C     11.3781      6.9246     11.7939
H     10.9256     -2.5565      6.8276
C      5.2315      2.4931      5.0076
H      4.0642     -0.3070      5.9602
H      7.8934      0.7695      8.5983
C      2.6374     -0.6232      8.9981
C      4.7144     -1.8369      7.9356
C     -2.3071      5.2672      3.4949
C     16.5651      9.7798     19.4448
C      2.2584      3.6713      2.7419
C      5.0558     -4.9039     10.0150
H      2.9848     -0.8912     10.1876
H     15.8023      8.8669     14.0887
H     -3.4103      4.4681      1.6852
H     15.2161     -8.7673     -0.7716
O      5.4394      6.6341      6.2944
C     13.6161     -4.8547      4.7166
H     16.5305     10.6424     19.7899
C     10.2278     -4.1938      3.5441
C     11.0101     -5.1917      3.1786
H      5.5381     -4.4288      7.3292
C     10.0408     -5.2606      7.6170
H      1.3967      2.2678      4.9599
H     14.7802      8.5470     10.5936
H      6.5130      1.9031      1.7019
H      0.7237      3.8766      9.5919
C      3.1000      2.0112      1.0940
C     12.9015     -4.2700      1.9985
C     -0.8935      3.1765      1.6048
C     -0.1076      4.0384      4.0832
C      7.3478     -2.0647      7.1256
H      2.3546     -0.3381      4.5840
H      8.8505     -5.1125      7.5902
H     15.7642     10.2295     18.8534
H     13.3015     -6.9999     -0.5408
O     12.7938     -3.3287      6.2768
C      6.0406     -1.3831      7.5321
C     13.5537     -6.0124      6.8475
C     15.1140      8.1008     14.2262
H     15.4861      8.6111     16.1304
C     13.4813     -5.2304      3.1491
H      8.7359     -0.4751      9.4055
C      2.3672      1.1163      3.4987
C      0.4420      2.2210      7.8630
C     10.5021     -2.0251      6.0417
C     -2.5187      3.1885      4.9111
C     18.3539     11.9570     17.8092
C      2.9284      3.9772      9.9910
C      0.5099      2.6680      1.0514
C     11.6564     -5.1770      1.8597
C      4.0038     -0.7039      8.5355
N      1.8638     -0.0500      3.8146
H      3.4784      2.1975     -0.9855
C      3.0249      1.4153     -0.3000
O     17.0545      6.4505     15.5455
C      9.3754      6.6154      0.5409
H     18.6909      9.3587     18.8323
H     -0.2360      1.5001      8.2869
C     -3.0081      4.6805      2.5831
C     10.1377     -5.3651      9.0295
H      1.9685      1.0170      6.7687
H      7.3011      4.7206      0.0813
H      7.7741     -4.0627      6.6852
C     11.3181     -3.3350      0.4637
H      4.4676     -5.0352      8.9994
H     14.9377     -5.0804      9.0059
H     12.2050     -3.7441      4.1210
H     15.4036      9.4004     12.0122
H      2.1903      1.2226     -0.8841
H     -0.8225      2.8223      9.5480
C     14.9668      7.6799     15.6536
H      5.9640      6.9546      8.7337
C     14.6615      8.7787     11.6272
C      5.9925     -2.2475     10.9625
H      2.7579      3.5599     10.9669
C      4.1290      8.4788      4.3921
C      7.5350      7.2280      2.6398
C     20.6770      9.7872     14.2806
C     18.4901      8.6367     14.6211
C      4.2335      6.1989      6.4470
C      1.9081      5.0159      2.6806
C      5.8239      6.0915      0.2957
C      5.5844      7.5174      4.0277
C      7.8827      6.8973      1.0321
C      4.1598      5.0220      7.4984
C     14.7018     -7.5640      1.0996
H     -2.5056      5.3406      6.5174
C      6.0693      6.8727      5.2019
H      9.6569      5.4120      0.0689
H      0.5732      1.5172      1.1498
C      7.1929      5.5580      0.8188
H     -0.2291      3.3014      3.2630
H     11.1709     -5.4971      9.1346
O      7.4585      6.8155      5.9204
H      9.3983      9.3257     11.5527
H      1.6321      3.1238      3.4649
H     12.6063     -2.9436      2.2916
H     16.3301     -8.9085      0.5450
H      4.4296      5.5367      4.3093
C     12.5216      7.4243     11.6255
C     15.6747      6.3742     16.0367
H     13.9200     -6.7032      9.2607
C     -1.7564      4.4000      4.7253
C      0.3038      6.6781      5.3533
H      4.5131     -4.5131     10.8982
H      2.6194     -0.1729      6.1881
C      1.3242      5.8066      4.6069
H      2.9435     -0.0086      1.7603
H     16.4971     11.4609     16.4530
H     12.5923     -5.4569      8.6795
C      8.2803     -7.1565      9.1000
C      4.3999      0.6512      8.4035
O      6.1100      3.8890      4.9649
C      6.0726      8.0223      2.7090
C      9.7186     -2.9993      5.4435
C     12.7299     -6.6494      2.9996
C     -1.3987      6.5647      3.8010
H     17.0302      8.4582     21.1857
H     -2.3351      3.0078      5.9235
C      2.2214      0.7920      9.0534
C      0.7764      5.2681      3.4448
C      5.0122      3.6491      2.5341
H     13.6293     -8.1749      7.5060
H      8.2231      8.3086      9.9556
H      8.3884      4.8656      5.0255
H     10.7625     -0.7399      7.6209
H      7.4191     -2.4549      6.1850
C     15.0791     -6.2474      8.6830
C     -1.5996      5.3314      5.8689
C      3.1987      1.0084      2.1342
C      1.5645      4.2443      5.6244
C     14.9734     -6.5457      7.3504
C     15.1917     -8.6911      0.3490
H     11.4028     -7.1652      1.0732
H      4.2098      2.4126      0.8646
H      3.6673      0.5705     -0.4788
H     11.5123     -1.6754      5.7439
H      5.7024      1.0145      3.7472
C     12.5344     -3.9739      5.0699
C      9.1586     -6.2470      9.6572
H      3.8775      6.1259      1.0182
H     21.7459      9.6114     13.8944
C      8.7346     -1.3014      7.7734
H      9.8833      6.5491      1.6779
H      8.7148     -2.3236      5.1262
H      6.0002      1.2630      9.6638
C     12.5075     -5.7194      7.5568
C      0.6926      3.1654      5.3382
O      7.8315      5.4818      4.4965
C     11.2114     -4.9824      5.5921
C      6.2408      1.8509      7.1727
C      5.2160      2.0051      6.3934
C      3.3666      0.6682      5.8601
H      6.9697      7.6936      6.6619
H      5.6380      3.6284      7.9996
H      7.8830     -3.7447      8.5067
H     13.7278     -3.9510      6.3449
H     19.2828     12.0685     18.1454
H      1.6577     -1.4911      8.8602
C     14.5299     -8.0686      7.1249
H     -0.9961      4.2910      1.5631
C      3.6863      5.4031      5.1993
C      3.2139      2.9870      9.1549
H     20.4616     10.5122     15.0152
C      8.6941      7.4879     10.6750
H      4.0909      5.7238      8.3284
H     11.0027      6.1332     11.0528
H      7.4501      1.9634      7.1466
C      3.6475      2.8077      4.5663
C     17.6618      9.5783     18.4927
C      6.4482     -0.2760      8.6183
C      7.5228     -3.5971      7.5509
C      5.6511      4.7783      7.8936
C      5.8150      1.0498      8.5269
H     -0.9267      4.1946      8.6613
H     10.0989     -4.4061      9.1458
H      0.8160      3.1703      0.2117
H     19.5811      9.7248     12.8048
H      8.1241      6.2346     11.8796
H     -0.5463      1.7929      6.4003
C     14.3748     10.5132     14.0746
H      3.2257      4.7973      9.2768
H     10.5382     -2.8549      3.6843
