262

C     19.6818      8.5763     13.7615
N     -2.0791     10.8113      1.3654
C      3.8266      1.6403      7.2099
C      2.2915      2.5126      2.0338
C      7.3252      4.7428      1.9813
H     -3.0055      7.0653      2.1284
C      7.4377      3.4488      2.3016
C      3.4362      3.9354      5.4162
C     16.3307      7.1744     19.5428
C      6.2675      2.0230      4.0913
C     -7.3163      8.1770      9.4191
C     13.8246      8.6055     13.4783
N     -0.0091      2.5575      6.2428
C     -0.2316      5.6796      0.4967
O     -1.3545      2.5945      1.3826
C      2.9783      4.0081      6.8149
H     -0.4749      6.0044     -0.4819
C     15.7156      6.1802     17.2231
C     16.2847     10.2500     16.5185
H      1.1925      1.5632      9.9637
H     -3.6128      3.8304      5.0847
H     17.7665      5.7621     15.1866
C     16.8266      8.8593     16.0167
H     -8.1560      6.5393     10.5036
H     -7.8638      8.8360     10.0821
H     -1.1848      5.6441      7.1045
H      8.3331      3.3072      8.6693
C      2.8157      2.8010      7.5682
O     14.1954     10.3159     14.9048
C     -5.0154     12.6671      8.3501
C      6.0689      5.9728      9.4006
H      3.6703      4.8745      8.5683
C      6.4467      3.3040      3.2437
H      5.9587      3.6648      7.3853
H     -8.5708     10.2950      9.2097
H      1.4554      5.7454      9.2531
C     17.3263     10.6165     17.4054
C     -2.7500      8.8678      5.0429
O      2.1237      8.5657      4.9108
C     -1.4804      8.4696      7.0158
C      8.6652      8.0684     11.6562
C     20.3370      7.6348     12.8554
C      6.4293      6.6426     -0.9350
H      5.2483      4.6306      1.9654
H     17.8052      9.8087     14.2647
H      2.0256     -0.9386      5.1613
H     -3.2762      6.4475      7.9003
H     16.0324     11.1109     12.9533
C      7.7509      2.5847      9.0261
H      0.7301      1.5415      2.2639
C      7.0701      6.3917     10.6371
C      7.7332      5.5821      3.0988
H      8.4825      7.8129      2.3644
C     -1.0896      6.9222      5.0412
H     15.4653      8.5998     21.3258
H      3.2303     -0.8918      2.3267
H      1.7224      6.1094      0.6762
C     -3.4218     11.5176      7.0897
C      6.2199      4.7278      8.9536
O      5.6633      2.4627     10.2551
C     16.2209      7.4762     18.0632
C      4.9381      4.8745     -0.5329
C     17.9299      8.9467     15.1413
H     -3.3086      8.0253      5.7020
H      8.8687      7.4482      3.9555
H      3.9106      1.5195     10.5723
H     -6.6636     12.0860      9.6763
H     17.7040     12.7661     16.8303
C     -0.0001      3.6595      8.7863
H     21.4587      8.8913     14.5594
C     13.0161      8.8808     12.1480
C      1.6415      1.9482      7.7685
H     -1.7306      7.2224      9.3370
C     -0.6786      6.4158      1.4152
H      5.4332      7.3115     -1.0251
C      9.9738      7.6484     12.6786
O     15.3686     10.5523     13.1911
C     -6.3730      8.4386      8.4712
C     16.2310      8.4553     20.3636
C      3.3756      1.6366      9.5617
C      2.7066      1.4703      4.7546
H     -3.0946     10.6321      1.8044
H     -7.4601     11.9314      7.0561
H      3.1511      5.3764      9.7568
C      4.2042      3.4494      3.1710
H     -3.3315      8.4993      6.9891
C     -2.0963      8.5803      0.4691
C     11.0486      7.4798     11.6093
H     -1.4620     10.7797      6.1729
C      5.1606      2.2153      5.1075
H      4.1318     -0.0544      6.0354
C      2.3316     -0.2417      9.1881
C     -8.4871     11.1944      8.6266
C     -2.3525      5.5027      3.6732
C     16.4380      9.5243     19.3849
C      2.7897      3.6893      2.5534
C     -7.8256      6.9186      9.5022
H     15.7302      7.2444     13.3153
H     -3.5210      5.7901      3.7123
H      2.4660      4.8611     -1.1280
O      5.7386      6.3000      6.5892
C      0.9364      8.1803      4.3009
H     -9.1180     10.5411      7.6368
C     -2.7485      8.6627      3.5722
C     -2.0839      7.5385      2.5479
H     -5.9759      7.4282      7.9100
C     -2.7072      8.6863      7.7577
H     12.5833     10.0110     10.5158
H      4.2065      4.0830      1.0418
C      3.4035      1.5211      2.0829
C     -0.1508      8.4957      1.6482
O      4.2683      3.7927     -0.0585
O      7.1977      4.1573     11.0473
C     -0.2097      3.0329      1.5183
C      0.4172      3.6676      3.9104
C     -5.9614     10.5683      7.4163
H     -2.7746      9.7724      8.0954
H     16.0057     10.5168     19.3911
H     -0.7101     10.2048      3.7765
H     12.7882      7.3927     10.2258
O      0.6114      9.6303      5.9617
C     -7.1088     11.3643      7.9336
C      0.7365      7.1330      6.6690
C     14.8358      7.3086     13.6539
C      0.6415      7.7285      2.8610
H     -4.3483     13.6133      8.4861
C      2.3542      0.2752      3.8828
C      0.2891      2.5419      7.7127
C     -2.7814     10.7776      6.0801
C     -2.5107      3.5834      5.2941
C     17.9117     11.8771     17.5609
C      2.8747      4.1691     10.0730
C      1.0040      2.1795      1.4566
C     -1.2958      7.6991      1.3036
C      3.6919     -0.3280      8.8945
N      2.2883     -0.9265      4.2789
C      4.4180      1.1332      0.9332
O     16.9226      6.0367     15.0315
C      9.4473      6.4068      0.4409
H     18.5817      9.0385     18.7299
H     -0.2981      1.6262      8.0542
C     -2.6164      4.5517      2.7566
C     -2.5525      8.1600      9.3059
H      8.3409      2.1069      9.6718
H      1.6383      0.9116      7.1091
H      7.3025      5.0288     11.1994
H     -5.9440     10.2137      9.4272
C     -2.5767      9.8355      0.6339
H     -8.6492      6.5416      8.8282
H      2.7215      6.7134      9.4124
H     -0.3096      9.5614      1.6597
H     13.9956     10.7822     12.1595
H      4.4520      0.0895      0.5620
H      0.9190      3.9720      9.1882
C     15.0402      7.3308     15.2529
H      4.5671      1.7493      0.1910
C     13.1463     10.0287     11.4657
H      5.2929      2.7695     11.0935
H     15.0841     10.1884     16.3269
C      4.3260      8.0572      4.4237
C      7.9894      7.2810      3.2312
C     20.6007      9.6700     14.1149
C     19.0612      8.2391     15.0038
C      4.3934      5.9618      6.4488
C      1.8808      4.8912      2.2217
C      6.2303      5.4879     -0.1738
C      5.6074      6.9480      4.1972
C      8.1300      6.6044      0.4897
C      4.0451      4.8586      7.4118
C      1.1933      5.0871      0.8091
C      6.3878      6.6366      5.4212
H     -2.2131      2.9219      4.5207
H     -3.4923      3.8096      2.8161
H      1.2010      1.5399      0.5088
C      7.2643      5.4720      0.7010
H     -0.2499      3.0456      3.0391
H      8.5683      9.2486     11.7898
H     21.0191     10.0916     13.2004
H      1.6275      3.3000      4.0234
H     -1.2842     10.6771      2.0442
H      2.2826      3.2796     -0.2532
H      4.8089      5.5620      4.3686
C     12.4243      7.7477     11.4534
H      7.3517      6.0119      5.2844
C     15.6991      6.1885     15.6500
H      1.0936      7.5290      9.0171
C     -2.1239      4.7922      5.1302
C      0.5263      7.0434      5.1231
H      1.9803      2.1618      5.3316
C      1.4003      5.8641      4.7185
H      1.9150     -1.2820      9.2247
H      1.7709     -0.2305      1.9071
H     16.8474     10.6935     15.7499
H     -0.2131      7.7864      8.3827
C     -3.8844      6.4910      8.7748
C      4.2316      0.9239      8.6399
C      6.4585      7.4671      3.2108
C     -3.4843      9.9759      5.3290
C     -0.1408      6.2027      2.8516
C     -1.3635      6.6298      3.5106
H      1.1098      4.0278     -1.1556
H      5.3056      4.5121     -1.7904
H     -2.3701      3.0037      6.0971
C      1.9757      1.1741      9.1469
C      0.6614      5.2585      3.5446
C      5.3257      4.0520      2.7594
H      1.3494      4.6495      7.8776
H     -4.6470      9.2267      8.7049
C      6.7867      3.3976      9.9894
H     -2.6946     12.2924      7.9262
H     -5.9945      9.5897      6.7006
C      1.8765      6.6738      8.7709
C     -1.4652      5.8792      6.0028
C      2.7692      0.1437      2.4660
C      1.2850      4.6394      5.5996
C      1.9666      6.5122      7.3150
C      1.8404      4.2378     -0.3844
H     -2.1343      4.7029      1.8853
H      4.0638      1.6340      2.8683
H     -1.7625      8.9439      9.5730
H      5.0599      0.6370      1.5997
H     -4.6688      5.6824      8.6776
H      5.6430      1.3198      3.3236
C     -0.2853      9.2330      4.5668
C     -3.8249      7.4734      9.5531
H      4.3940      5.9383     -0.4888
H     -3.7661      8.9294      3.4443
C     -4.8006     11.6163      7.6118
H     -2.0129      3.7609      3.2308
H     -4.5415      9.8893      5.4553
C     -0.3579      7.6244      7.3333
C      0.0884      3.7061      5.5506
O      8.0183      5.0296      4.1545
C     -1.3508      8.4454      5.3880
C     -6.9782     14.0557      7.1515
C      4.9488      1.8500      6.4176
C      3.3733      0.7616      6.1723
H     -5.9448     13.9957      7.2619
H      4.5304      2.9493      8.6877
H      0.2603      8.5897      6.4751
C      1.8445      4.9999      7.0465
H     -0.2532      4.0201      0.9414
C      3.9877      5.2938      5.0606
C      3.4577      3.1432      9.1210
H     20.2888     10.3085     14.8040
C      8.0359      7.3890     10.5060
H      2.1360      3.8675     10.7769
H     10.7319      7.3246     10.6447
H     -7.1795     13.0899      6.7708
C      3.8978      2.7137      4.5059
C     17.5559      9.3265     18.2772
C     -6.4381     12.5422      8.7134
C     -5.5516      9.6137      8.4704
C      5.2390      4.1295      8.1157
C     -7.1087     13.8892      8.4879
H     -0.9466      3.5512      9.3235
H     -3.3578      9.8184     -0.0641
H     19.1805      9.5155     13.3910
H     10.2519      5.7652      0.7586
C     14.3673      9.8467     13.8482
H      3.8290      4.2806     10.5550
H     -2.8169      9.6110      3.1757
262

C     19.6362      8.7065     13.7036
N     -2.0899     10.8331      1.2785
C      3.6985      1.6816      7.2023
C      2.4885      2.4822      2.0552
C      7.4275      4.8334      1.9261
H     -2.9049      7.1664      2.2393
C      7.3877      3.4827      2.3335
C      3.4196      3.8737      5.3527
C     16.3182      7.2849     19.4810
C      6.1914      2.0145      4.1463
C     -7.2593      8.2464      9.5306
C     13.8087      8.4431     13.4967
N     -0.0611      2.6023      6.2282
C     -0.2127      5.5999      0.5486
O     -1.2726      2.5087      1.4849
C      3.0963      4.0966      6.7770
H     -0.1685      6.0112     -0.4754
C     15.7450      6.1616     17.2879
C     16.2746     10.2089     16.6441
H      1.2399      1.1742      9.7721
H     -3.5168      3.7512      4.7562
H     17.7671      5.8600     15.3462
C     16.8122      8.7977     16.1719
H     -8.3906      6.7069     10.5098
H     -7.7174      9.3738      9.5885
H     -1.2279      5.7668      7.1853
H      8.0932      3.4042      8.4819
C      2.8570      2.7614      7.6283
O     14.1480     10.4571     14.8491
C     -5.0227     12.6902      8.2466
C      6.1586      5.9325      9.4960
H      2.5721     -0.2395      6.6083
H      3.5946      5.3298      8.3829
C      6.4657      3.2064      3.2933
H      5.7510      3.6630      7.1709
H     -8.4990     10.4834      9.5871
H      1.5663      5.7093      9.1406
C     17.3496     10.6167     17.5571
C     -2.6498      8.7561      4.9876
O      2.0778      8.5729      4.8244
C     -1.4655      8.5883      6.9921
C      8.5309      8.0719     11.7405
C     20.2596      7.6061     12.6435
C      6.3415      6.6724     -0.8299
H      5.3715      4.4359      1.7770
H     17.2368      9.6507     14.3195
H      1.9136     -1.2413      5.2061
H     -3.4351      6.6524      7.7390
H     16.0386     11.1479     12.9725
C      7.5999      2.5637      8.9094
H      0.5310      1.4605      2.3168
C      6.9903      6.5604     10.5709
C      7.7870      5.7116      3.1353
H      8.5786      7.6423      2.2165
C     -1.0856      6.9930      5.0811
H     15.7044      8.1689     21.3432
H      3.3193     -0.7861      2.2673
H      1.8619      6.0574      0.4956
C     -3.4352     11.4376      7.2407
C      6.2272      4.6313      9.0814
O      5.7428      2.5297     10.3197
C     16.1953      7.4245     18.0452
C      4.9992      4.8749     -0.5683
C     17.8825      8.9435     15.0805
H     -3.1460      7.7514      5.2864
H      8.3708      7.0543      4.0901
H      3.8076      1.7244     10.8190
H     -6.5868     12.2868      9.6650
H     17.5102     12.7566     17.1568
C      0.1056      3.7353      8.8421
H     21.7384      9.3704     14.6565
C     13.0172      8.8431     12.2255
C      1.5756      1.9201      7.7693
H     -1.8585      7.2991      9.5198
C     -0.5378      6.4399      1.4067
H      5.5036      7.2226     -1.4751
C     10.0000      7.7098     12.5562
O     15.4167     10.5262     13.0859
C     -6.2657      8.2592      8.4367
C     16.3332      8.5533     20.4316
C      3.5592      1.5978      9.6008
C      2.8244      1.3998      4.7178
H     -2.8680     11.3262      1.7909
H     -7.4744     11.9235      7.1406
H      3.0343      5.4071      9.7070
C      3.9983      3.5427      3.2235
H     -3.5276      8.4739      7.1205
C     -2.1134      8.5446      0.5025
C     11.0864      7.3790     11.6657
H     -1.6255     11.3417      6.1613
C      5.2354      2.2163      5.1300
H      4.2592      0.1617      5.9585
C      2.4751     -0.2679      9.0208
C     -8.5806     11.2193      8.5936
C     -2.2360      5.4509      3.7913
C     16.6181      9.5971     19.3625
C      2.7379      3.6758      2.5524
C     -7.9358      6.8967      9.4543
H     15.8086      7.5619     13.5462
H     -3.3651      5.8197      3.9628
H      2.2364      4.9904     -0.9109
O      5.6918      6.3485      6.5108
C      0.7007      8.2557      4.3154
C     -2.7831      8.6883      3.4413
C     -2.0810      7.5386      2.6988
H     -6.0317      7.4089      7.6632
C     -2.6483      8.6618      7.7858
H     12.3971     10.0366     10.5905
H     -0.0845      4.7263      8.3798
C      3.4481      1.3753      1.9065
C     -0.1198      8.4873      1.7193
O      4.3462      3.7899     -0.0034
O      7.3333      4.0616     11.0663
C     -0.2576      3.1604      1.4489
C      0.3349      3.7973      3.9928
C     -5.9983     10.5981      7.3852
H     -2.5723      9.6963      8.2420
H     15.8014     10.3015     19.0398
H     -0.8633      9.9982      3.8984
H     12.7692      7.5847     10.4800
O      0.5397      9.6286      5.9313
C     -7.1339     11.3597      7.8163
C      0.7083      7.1751      6.6525
C     14.8323      7.3703     13.7895
C      0.7072      7.7519      2.8039
H     -4.2192     13.5971      8.2284
C      2.3602      0.3340      3.7843
C      0.2401      2.4955      7.6523
C     -2.7603     10.8652      6.1868
C     -2.4279      3.6008      5.4067
C     18.0668     11.7853     17.4535
C      3.0385      4.1936     10.0854
C      0.9401      2.2252      1.5749
C     -1.3161      7.8080      1.4977
C      3.8399     -0.4823      8.8411
N      2.1957     -0.9009      4.2521
C      4.3701      1.1552      0.9358
O     16.9203      6.1057     14.9079
C      9.5598      6.5583      0.4363
H     18.6700      8.8838     18.4935
H     -0.5895      2.1034      8.0507
C     -2.5897      4.4157      2.6993
C     -2.5723      8.2283      9.3323
H      8.4425      2.1635      9.4490
H      1.5591      1.3531      6.8337
H      7.0064      5.1134     11.4364
H     -5.8251     10.4113      9.6133
C     -2.5745      9.7680      0.6207
H     -8.7289      6.7195      8.7861
H      2.9513      6.7032      9.2507
H     -0.6978      9.5026      1.7562
H     13.9573     10.6982     11.2113
H      4.0973      0.2649      0.2990
H      1.1073      4.0624      8.9944
C     14.9143      7.3135     15.2931
H      4.5871      1.7118      0.1800
H      0.9362     10.4594      6.4862
C     13.1518      9.9084     11.3292
H      5.3744      3.2179     10.9558
H     14.9401      9.8179     16.5271
C      4.3876      7.9632      4.3978
C      8.1142      7.1651      3.1497
C     20.7105      9.6455     14.2336
C     19.0109      8.2891     15.0218
C      4.4397      5.9609      6.3819
C      1.7704      4.9983      2.4240
C      6.1379      5.4534     -0.0503
C      5.4845      6.9816      4.2348
C      8.1024      6.5586      0.4984
C      4.0059      4.9161      7.4937
C      1.2104      5.1410      0.8846
H     -2.5912      6.2256      6.2475
C      6.4274      6.5232      5.3886
H     -2.0714      2.8462      4.6989
H     -3.7597      4.3255      2.8030
H      1.2134      2.0830      0.3631
C      7.2560      5.4612      0.7315
H     -0.1635      3.2920      3.1290
H      8.6030      8.9856     11.4450
H     20.7352     10.2951     13.3121
H      1.3898      3.3037      3.8672
H     -1.2775     10.8934      1.9364
H      2.1307      3.1921     -0.2022
H      4.8356      5.3511      4.2807
C     12.4056      7.7016     11.6241
H      7.2512      5.8652      5.3857
C     15.7946      6.1327     15.6660
H      1.2431      7.5082      9.1009
C     -2.0149      4.8164      5.0044
C      0.5455      6.9935      5.1165
H      2.2157      2.2317      4.9946
C      1.4703      5.8629      4.6760
H      2.0483     -1.0431      9.3238
H      2.1587     -0.0886      1.6561
H     16.2466     11.1335     15.9732
H      0.1733      8.1874      8.1359
C     -3.8652      6.4332      8.6998
C      4.2885      0.8994      8.5589
C      6.6159      7.4197      3.0055
C     -3.3673      9.9514      5.4333
C     -0.3225      6.1230      2.8234
C     -1.4357      6.6022      3.5751
H      1.0637      4.2899     -0.9852
H     -2.1528      3.3450      6.5537
C      2.0500      1.1399      9.1301
C      0.6994      5.2164      3.4982
C      5.1249      3.9747      2.7431
H      1.2249      4.3287      7.7894
H     -4.5235      9.2144      9.0253
C      6.7370      3.3881      9.9159
H     -6.0030      9.9713      6.5257
C      1.9599      6.5836      8.7022
C     -1.5619      5.9335      6.0002
C      2.7643      0.2507      2.4156
C      1.0226      4.9096      5.6993
C      1.9922      6.4360      7.0751
C      1.7925      4.3179     -0.1986
H     -2.0825      4.8433      1.8293
H      4.3076      1.6450      2.5441
H     -1.9367      9.0194      9.7246
H      5.1716      0.5810      1.2816
H     -4.7713      5.8821      8.6571
H      5.7218      1.3777      3.2804
C     -0.2701      9.2039      4.6197
C     -3.7679      7.4256      9.5816
H      4.1961      5.8485     -0.5288
H     -3.8937      8.7047      3.1444
C     -4.6672     11.5228      7.7065
H     -1.4749      3.8213      2.8850
H     -4.4790      9.6942      5.8816
C     -0.4333      7.6808      7.3422
C      0.1409      3.7131      5.5562
O      7.9936      4.9897      4.0387
C     -1.4185      8.4723      5.3559
C     -6.8320     14.1259      7.2097
C      5.0397      1.9027      6.5553
C      3.2321      0.6998      6.1032
H     -5.8679     14.4152      7.0653
H      0.3353      8.7266      6.3944
H     19.0709     12.0324     17.8583
C      1.7322      4.8893      7.0911
H     -0.2448      4.2140      1.0165
C      3.9313      5.3136      5.0732
C      3.3625      2.9922      9.1911
H     20.3352     10.4470     14.8573
C      8.0618      7.2955     10.4869
H      2.1843      4.1800     10.9232
H     10.2001      7.1500     10.6756
H     -6.7699     13.2467      6.6518
C      4.0218      2.8567      4.5650
C     17.6996      9.2399     18.3467
C     -6.4781     12.5739      8.7144
C     -5.5861      9.5460      8.6546
C      5.1283      4.1340      8.1166
C     -7.0836     13.8614      8.5450
H     -0.6382      3.6996      9.5925
H     -3.3588      9.9897     -0.0445
H     18.6523      9.1775     13.3519
H     10.2699      5.8302      0.5909
C     14.2696      9.8331     13.7887
H      3.6908      4.3340     10.8763
H     -2.2843      9.5113      3.1211
