264

C     19.9633      8.8377     14.0372
N     -1.9943     10.7992      1.1405
C      3.9350      1.5916      7.0674
C      1.8931      2.6635      1.5418
C      7.4167      5.1621      2.3338
H     -2.9736      6.8732      2.4886
C      7.0602      4.1807      3.3102
C      3.1002      3.8313      5.3904
C     15.7999      7.0276     19.4460
C      5.8371      1.8998      3.7568
C     -6.8708      8.0242      9.5322
C     13.6547      8.8849     13.6281
N     -0.3633      2.6301      6.5295
C      0.3075      5.8493      0.4845
O     -1.6298      2.1813      0.9244
C      3.1087      3.7772      6.7702
H     -2.7982     11.5064      0.9364
C     15.6112      5.9897     17.4151
C     16.2952     10.1757     16.6142
H    -11.8853     13.7388      9.5740
H     -3.7342      3.8957      4.5614
H     17.0735      6.8273     15.2605
C     16.8372      8.9781     16.2103
H     -8.9687      7.3532      9.6080
H     -6.3218      8.4048     10.4852
H      7.8001      3.8949      3.9276
H     12.7035      7.2316     10.8229
H     -1.1451      4.8584      6.1621
H      8.6041      3.6974     10.1104
C      2.9067      2.5125      7.5700
H      6.5929      1.4716      4.3008
O     13.8211     11.0963     14.8637
C     -4.7281     12.7836      8.1876
C      7.2466      5.9981      9.7198
H      3.0810      6.7303      9.0765
C      6.0588      3.2183      2.9851
H      6.4031      4.2010      7.6371
H     -7.6847     11.8772      9.4763
H     -8.4125      6.7217      8.3859
C     17.1988     10.8523     17.6714
C     -2.7508      8.3268      4.9026
O      1.9247      8.4864      5.1396
C     -1.4040      7.9750      7.0591
C      8.7223      8.2730     12.1442
C     20.3117      8.0317     12.9027
C      6.5581      7.0392     -0.8430
H      4.3856      4.3120      1.8307
H     17.8333     10.1273     14.8620
H      1.1484     -0.8348      3.6999
H     -5.3012      6.9391      8.0263
C      7.7688      3.2812      9.5671
C      7.3969      6.5335     11.1135
C      8.3101      6.2201      3.2620
H      8.3851      7.4105      1.6214
C     -0.9896      6.7212      5.1400
H     15.8810      8.5415     21.1776
H      2.5322     -0.3387      2.0076
H     15.2831      7.0787     13.2690
C     -3.1576     11.5869      6.9973
C      6.0924      4.9408      9.4414
O      5.7636      2.7601     10.5870
C     15.9089      7.4193     17.9743
C      4.7792      5.2544     -0.3887
C     17.7462      8.8925     15.0706
H     -3.5225      7.3621      4.8604
H      7.9613      8.0053      4.5982
H     -9.4298     14.0195     10.6552
H     -6.0456     12.2499      9.6451
H     17.5260     12.7000     16.6945
C      0.1614      3.3912      8.7294
C     12.9628      8.8417     12.2772
C      1.5537      1.4584      7.7450
H     -2.2786      8.6800      9.8618
C     -0.6822      6.3830      1.4476
C      9.8741      7.8002     12.8303
O     15.6112     10.4550     13.3473
C     -6.7135      8.8481      8.3897
C     16.3725      8.3179     20.1303
C     -9.7596     14.1577      9.6502
C      2.6803      1.4947      4.9755
H     -1.9981     10.6072      2.1342
H     -2.9231      9.8947     -0.5548
H     -6.9761     11.8730      6.7164
H     -9.1919     16.2342     10.8959
C      3.7751      3.1292      3.1747
H     -4.0550      8.9524      6.6611
C     -2.0616      8.5907      0.6672
C     10.9737      7.2972     11.8502
H     -1.2706     10.9262      5.9317
C      5.0281      2.4276      5.0781
H      4.0358     -0.1346      5.7414
H     -2.4021      2.7020      0.8684
C    -10.3974     12.1819      8.6618
C     -8.0183     11.3792      8.4171
C     -2.0011      5.1083      3.2976
C     16.3982      9.6803     19.5208
C      2.2872      3.4143      2.6239
C     -7.9884      6.9089      9.4562
H     16.1192      8.1644     13.7703
H      1.7701      4.7725     -1.0093
O      5.3505      6.5609      6.8036
C      0.6172      8.1271      4.5159
H     -8.0504     10.2763      8.3611
C     -2.5692      8.6784      3.3629
C     -2.0573      7.4181      2.7821
H     -6.9031      8.4510      7.3778
C     -2.6267      8.1005      7.6343
H      2.2822      4.3735      5.0252
H     13.1508      9.3163     10.3362
H      5.0924      3.5857     -1.2035
H     -0.1382      4.3329      7.9390
C      3.0487      1.6374      1.5197
C     -0.1387      8.5615      1.9646
O      4.8895      3.7100     -0.3305
O      6.9223      4.1956     11.7316
C     -0.6475      2.8878      1.4864
C     -0.4331      4.0412      4.3278
C     -5.5719     10.6464      7.4737
H     -3.3921      7.5724      7.3016
H     15.6037     10.3127     19.3948
H      0.3979      6.2134     -0.5750
O     -0.0809      9.7749      5.8909
C     -6.7519     11.5602      7.6388
C      0.5711      6.8839      6.8574
C     15.0456      7.8813     13.9485
H     15.7774      8.3806     15.7638
C      0.6119      7.6586      2.7236
H     -4.0729     13.2697      8.8849
C      2.3971      0.5838      3.8403
C      0.3102      2.3202      7.8560
C     -2.4164     10.7225      6.0342
C     -2.9217      3.4497      4.9422
C     17.5194     12.1557     17.6690
C     -9.2422     16.8304      9.9699
C      0.5600      2.2593      1.3685
C     -1.3552      7.6798      1.5000
C     -9.0632     12.2695      8.0046
N      1.9619     -0.4664      4.3522
C      3.6989      1.5876      0.0980
O     16.7004      5.9713     15.2271
C      9.1304      6.3504     -0.0479
H     18.3089      9.9276     19.2674
H     -0.6227      1.9266      8.3978
C     -2.5015      4.8396      2.0791
C     -2.7912      8.2429      8.9595
H      7.6742      3.4606      8.4903
H      1.3732      0.9490      6.9028
H      6.2395      4.8930     12.0423
H     -5.3213     10.5278      9.5130
C     -2.1333      9.8252      0.2448
H     -7.8581      6.3481     10.4091
H     -0.9951      9.5943      4.1430
H     14.4355     10.4451     11.6865
H      3.4255      0.8060     -0.6964
H      0.9999      3.6701      9.3616
C     14.9818      7.4884     15.3453
H      3.3354      2.5131     -0.3666
H     12.8574     11.1596     14.8178
C     13.9084      9.2631     11.3079
H      5.8921      1.9050     11.4283
H     15.1683     10.1806     17.0984
C      4.2368      8.0677      4.3540
C      7.8826      7.5550      3.5214
C     21.2266      9.1337     14.8824
C     19.0092      8.3838     15.1971
C      4.3187      5.7557      6.4295
C      1.6594      4.9133      2.5087
C      5.8945      6.0327      0.0557
C      5.6022      7.5662      4.5503
C      8.0635      6.5869      0.7909
C      4.1503      4.7133      7.4451
C      1.3733      5.2825      1.0451
H     -2.7846      6.0546      5.9570
C      6.2212      6.6481      5.6482
H      0.2955      1.6579      0.5722
C      6.7584      5.8812      1.1086
H     -0.8521      3.3920      3.4861
O      7.4672      6.9024      6.4272
H      8.9744      9.3163     11.5546
H     20.9012      9.6763     16.0368
H      1.3911      3.0722      3.4005
H     -0.5567      9.5938      2.3410
H      2.9001      4.2499     -0.1903
H      4.7620      4.9176      4.3915
C     12.2620      7.6833     11.6661
H      6.0942      5.6454      5.2171
C     15.4968      6.1177     15.8501
H      2.2630      5.7532      9.3855
C     -1.7975      4.5526      4.7157
C      0.4284      6.7358      5.4691
H     17.2934      8.0669     20.6347
H      1.6854      1.7485      5.6014
C      1.3093      5.6500      4.9371
H    -10.7209     11.3172      9.4798
H      1.3282      0.8786      2.1852
H     16.2393     10.5122     15.6879
H     -0.0051      7.8426      8.6889
C     -4.7715      6.5906      8.7950
C     -8.5956     13.8232      8.4503
C      6.3522      7.3938      3.3070
C     -3.4165      9.3921      5.7201
C     -0.1062      6.4304      2.8719
C     -1.3168      6.5811      3.7036
H      4.7391      5.9375     -1.3387
H     -3.3052      3.5351      6.0354
C    -10.9126     13.6683      8.9031
C      0.4702      5.0854      3.4052
C      4.8628      3.6489      2.5807
H      1.6831      4.2134      8.1941
H     -4.5562      9.0935      8.6759
C      6.5666      3.7162     10.6211
H     -5.8377     10.1223      6.4195
C      2.1080      6.5359      8.9638
C     -1.7940      5.6447      5.6973
C      2.4168      0.6448      2.3115
C      0.9516      4.4917      5.9549
C      1.7311      6.1431      7.5227
C      1.9628      4.3751      0.1334
H      4.0191      1.8079      2.1260
H      4.7660      1.5427      0.4098
H     -4.1028      5.6104      8.6202
H      5.1479      1.2430      3.5664
C     -0.5851      8.8930      4.9945
C     -3.8731      7.6638      9.5487
H      3.7825      5.5416     -0.1074
H     -3.6574      8.8863      2.5173
C     -4.5099     11.6632      7.4643
H     -2.2250      3.8986      1.3873
H     -4.2795      9.7422      5.1056
H     -6.6872     14.7447      9.0007
C     -0.1657      7.7501      7.7531
C      0.1002      3.5766      5.6234
O      8.8573      5.6603      4.3290
C     -1.5099      7.9302      5.5896
C     -6.6001     14.3653      7.3141
C      5.2740      2.1623      6.3869
C      3.2740      0.6340      6.1170
H      8.1339      7.6590      6.2485
H     -6.0063     15.1744      7.6519
H      5.3306      3.0887      8.5875
H      1.0113      9.4411      5.8812
H     18.4847     11.9815     18.1298
C      1.8218      4.6605      7.2263
H     -0.4603      3.6977      2.2272
C      3.9280      5.1389      5.2444
C     -9.7631     15.6516      9.3323
H     21.9199      9.9240     14.3891
C      8.4126      7.6004     10.9271
H     10.8476      6.3800     11.5467
H     -6.4130     13.7936      6.4814
C      3.6325      2.6122      4.6171
C     17.5045      9.9690     18.7872
C     -6.0140     12.4922      8.6404
C     -5.4864      9.6732      8.5199
C      5.4326      4.1911      8.2145
C     -7.0380     13.7924      8.6126
H     -0.8222      3.4185      9.5373
H      1.1285      3.4824      0.1724
H     19.6631      9.8254     13.3880
H      9.4727      5.3097     -0.7028
H     -1.4071      2.4354      6.1178
C     14.4820     10.4061     13.9826
H     -9.7003     17.7562     10.0249
H     -2.3088      9.9210      3.4317
