260

C     19.5880      8.6642     13.3281
N     -3.3544     10.4122      2.0405
C      3.8546      1.7197      7.1636
C      2.2738      2.4001      2.3941
C      7.3327      4.7811      2.1658
C      7.5378      3.3549      2.0934
C      3.4595      3.9427      5.4951
C     16.2008      7.0157     19.4920
C      6.4810      1.7964      3.8974
C     -6.9536      8.4875      9.5312
C     13.6462      8.9297     14.0634
N      0.3652      2.4934      6.1287
C      0.6868      6.3752      0.8908
O     -1.0593      2.5853      1.2456
C      3.1661      4.0423      7.0107
H     13.9757      7.6775     11.3507
C     15.6739      6.2446     17.4186
C     17.1961     10.3267     16.1836
H    -11.4903     14.1188     10.3300
H     -2.5759      2.7038      5.0733
C     17.0762      8.9190     16.0002
H     -8.5463      7.3201     10.6141
H     -6.1076      8.7015     10.2416
H    -11.2671     17.3084      9.5733
H     -6.0097     14.2136      8.6624
C      2.8924      2.8742      7.9445
O     14.0921     10.2746     15.6468
C     -4.9345     12.2329      9.1428
C      6.1762      5.9972      9.7171
H      3.1766     -0.2237      6.5799
H      3.9062      4.9123      8.6006
C      6.4756      2.6633      2.5575
H      5.7703      3.2936      7.3114
H     -9.1998     11.9847     10.2007
H      2.3945      7.9068      9.0051
C     17.6682     10.6748     17.4994
C     -2.8983      8.5812      5.1532
O      1.8549      8.6913      4.9950
C     -1.4299      8.3575      7.0856
C      8.9557      7.8068     11.6397
C     20.5874      7.6488     12.8012
C      6.6670      6.5755     -0.8706
H      5.2968      4.2307      1.6987
H     17.2807      9.6245     14.0743
H      2.3179     -1.3951      5.4025
H     -5.4468      6.6542      7.6114
C      7.8742      2.9141      8.5433
H      1.4512      1.3361      1.1144
C      7.1870      6.4375     10.6113
C      7.8340      5.5982      2.9416
H      8.2298      7.8887      1.6757
C     -1.0441      6.7763      5.2385
H     16.9619      8.4091     21.3088
H     16.6839     10.8591     15.3965
H      2.6976      5.9123      0.4980
C     -3.3357     11.3627      7.6286
C      6.3893      4.8652      8.8093
C     15.8580      7.5222     17.8824
C      4.6074      5.2521     -0.2803
C     17.7584      8.6571     14.8064
H     -3.4634      7.6476      5.5058
H      8.3108      7.4014      3.7174
H     -9.3909     14.1270     10.7423
H     18.8061     12.6185     16.7577
C     -0.6839      3.4530      7.9931
H     19.6212     10.4160     14.6835
C     13.2393      8.8497     12.4113
C      1.4940      2.1112      8.0419
H     11.1305      6.2214     11.2104
C     -0.7914      6.0793      1.6588
H      5.6594      6.8237     -1.0765
H     19.0464      8.5888     12.4896
C     10.1315      7.3176     12.5889
O     15.4350     10.4811     13.8523
C     -5.7649      8.5826      8.2964
C     16.6447      8.1860     20.1706
C     -9.5073     14.4471      9.8002
C      2.6718      0.9705      4.9196
H     -3.4506     10.3645      2.9916
H     -2.9946     11.3409      1.8896
H     -7.2707     12.5847      6.7032
H      2.4667      5.9587      9.4690
C      4.3118      3.2957      3.2653
H     -2.1275     10.0451      8.2138
C     -2.5274      8.1942      1.0138
C     11.5880      6.7305     12.0003
H     -2.9273     11.8286      5.4985
C      5.2389      1.9745      5.0094
C    -10.6832     12.4301      8.9877
C     -8.4669     11.1247      8.2846
C     -1.6614      4.9979      4.0256
C     16.4032      9.5346     19.4936
C      2.7860      3.6363      2.6929
C     -7.8964      7.1852      9.6543
H    -11.6178     11.8238      9.5552
H     15.2795      7.5485     13.2907
H      8.4740      4.1406      4.1839
H      0.6011      4.7272     -0.4863
O      5.6614      6.5065      6.4585
C      0.6521      8.1075      4.6229
C     -2.8317      8.3594      3.6585
C     -2.1703      7.1958      2.9339
H      8.6256      2.9852      1.9517
C     -2.3814      8.9684      8.0486
H      3.2142      4.0504      0.8437
H     -0.5543      3.6364      9.0716
C      3.1376      1.3363      1.9719
C     -0.2669      8.4304      2.1811
O      3.9752      4.2440      0.2523
O      7.9486      3.9597     10.4066
C     -0.0382      3.0994      1.5673
C      0.4204      3.6338      3.8601
C     -5.9905     10.6507      7.3821
H     15.5974     10.1068     19.5749
H     -0.8077      9.7681      4.1095
H     12.6939      8.0077     10.7051
O      0.0153     10.1800      5.9217
C     -7.1737     11.0145      8.4697
C      0.6876      7.0282      6.9029
C     14.4062      7.6020     14.0049
H     15.7977      8.2298     15.4996
C      0.6486      7.4658      3.0496
H     -4.6159     13.2218      9.4494
C      2.8114     -0.1739      3.9037
C      0.2675      2.6064      7.4311
C     -2.8395     10.9571      6.2246
C     -2.4740      3.3328      5.8773
C     18.0498     12.0901     17.6056
C    -10.4356     17.0059     10.1737
C      1.0506      2.0208      1.8425
C     -1.3915      7.5684      1.7049
C     -9.1845     12.1793      9.0243
N      2.1868     -1.5973      4.2845
C      3.5601      1.2281      0.3922
O     16.8560      6.2966     15.1171
C      9.5300      6.2053      0.3008
C     -2.3297      4.1354      3.1523
C     -2.8665      8.2188      9.2292
H      6.9202      2.5892      7.7437
H      2.3484      1.4607      7.0879
H      7.4968      3.1838     10.8366
C     -3.5193      9.2321      1.1113
H     -8.5207      6.7340      8.7590
H      1.1650      7.1320      9.3529
H     -0.6157      8.9422      3.0537
H     13.1030     10.1080     10.8501
H      2.5392      0.8539      0.0796
H     -0.8164      4.2207      7.0929
C     14.9836      7.4002     15.4175
C     13.4390     10.1780     11.8637
H      7.8261      4.7990     10.7597
H      3.0961     -1.9488      3.9659
C      4.3286      8.2540      4.4897
C      7.9148      7.1810      2.6544
C     20.0041      9.9584     13.6685
C     18.8480      7.8701     14.6543
C      4.3625      5.8939      6.3074
C      2.1189      4.8749      2.4742
C      6.1114      5.4808     -0.0597
C      5.4670      7.4305      4.0046
C      8.1604      6.4238      0.6767
H     14.1035     11.1482     12.2888
C      4.1470      4.9687      7.4991
C      1.7315      5.3771      1.0328
H     -3.1595      8.9488      7.4225
C      6.3384      7.1298      5.2788
H      1.6794      1.2969      4.8128
H     -2.8471      4.5916      2.1899
C      7.1028      5.5532      0.9908
H     -0.5588      2.9949      3.6454
O      7.6025      7.2631      5.2467
H      8.7790      8.7629     11.3870
H     20.8446      9.5640     14.3854
H      2.1116      4.7878     -0.8069
H      8.0039      1.8145      8.9104
H      4.3982      5.2996      4.3468
C     12.7496      7.7194     11.7648
H      6.5211      4.7064      7.0835
C     15.7491      5.9906     15.8592
H     -0.3334      8.1467      8.8177
C     -1.7721      4.4251      5.2783
C      0.4655      6.8615      5.4317
H     -7.5152      9.2892      9.6078
H      3.2041      1.8002      4.3061
C      1.0956      5.7888      4.9277
H    -11.2799     12.3027      8.1081
H      2.2769     -0.5986      2.0005
H     13.9611      9.6035     16.3326
C     -4.8457      7.5284      7.9353
C     -8.6048     13.7799      8.7303
C      6.3856      7.4088      2.9356
C     -3.6881      9.9061      5.3995
C     -0.0617      6.1659      3.0462
C     -1.2875      6.3025      3.9243
H      1.2075      3.2025     -0.1452
H      4.6932      5.0409     -1.5536
H     -2.6870      2.9914      6.9514
C    -11.0094     14.0824      9.4741
H     -1.8866     11.1479      5.9007
C      0.6809      5.0844      3.5413
C      5.4593      3.6629      2.5845
H      1.1747      4.6799      8.0410
H     17.7488      8.4141     19.9602
C      7.4047      3.9866      9.2399
H     -2.8273     12.2120      8.0724
H     -6.4755     11.3896      6.7112
C      2.1838      6.8362      8.9267
C     -1.5743      5.7515      6.2510
C      2.6214      0.1848      2.6580
C      0.7669      4.8216      5.8912
C      2.0879      6.4617      7.4338
C      1.5101      4.2170     -0.1217
H     -1.6430      5.4883      1.4957
H      3.8821      1.3064      2.5383
H     -2.6697      8.5475     10.3504
H      4.5827      0.6986      0.4515
H     -4.2562      7.6143      6.9250
H      8.8332      3.1436      8.0966
H      7.3551      0.9719      4.4254
C     -0.4104      9.2792      5.1394
C     -4.0575      7.4667      9.0500
H      4.0750      6.0930     -0.4838
H     -3.7024      8.7860      3.3939
C     -4.6588     11.4851      7.8271
H     -2.5746      3.1701      3.1882
H     -3.9412     10.4846      4.4349
C     -0.2945      7.8958      7.7292
C      0.5236      3.5406      5.2794
O      8.6678      5.2148      4.0471
C     -1.5286      8.2198      5.6003
C     -6.7888     13.5586      6.7447
C      5.2750      1.6859      6.4411
C      2.9663      0.8582      6.2494
H     -5.6393     14.1209      6.5939
H     -8.5546     16.2181      9.6650
H     -5.0556     11.9032     10.4853
H      0.2832     10.7175      5.2373
H     18.1088     12.4507     18.7225
C      1.8696      4.8091      7.0606
H      0.3875      4.2575      1.8708
C      3.8005      5.4005      5.1568
C     -9.4696     16.0182      9.2791
H     20.4856     10.9025     13.1066
H      0.7950      6.4238     -0.3652
C      8.3632      7.0029     10.3399
H    -10.6156     16.7240     11.0941
H     11.9772      5.9534     12.7095
C      4.2976      3.0927      4.5779
C     17.3186      9.4779     18.4706
C     -6.5204     12.4476      8.9744
C     -6.4704      9.2603      7.2526
C      5.6685      4.3809      7.7424
C     -7.0073     13.7400      8.4807
H     -0.5617      5.4920      6.9632
H     -3.4788      9.5707      0.2059
H     -6.8567     12.5003     10.0501
H     10.0883      5.4015      0.1836
C     14.5885     10.0244     14.4010
H     -9.8133     17.8831     10.4826
H     -2.1265      9.2308      3.6871
