269

C     19.6416      9.0747     13.9106
C      4.3048      1.4734      6.8282
C      2.8303      3.0389      0.9777
C      7.2062      5.0314      2.6560
H     -3.4415      3.2160      1.8837
C      7.3665      3.5326      2.4505
C      3.0450      3.9344      5.2804
C      6.5653      9.8725     11.1011
C     15.7912      7.0983     19.4036
C      6.3785      2.1877      4.1512
C      5.9289      8.6671     10.2726
C     13.7093      8.7942     13.3968
N     -0.2670      3.2357      6.3853
C      0.6673      5.6834      0.0579
O     -1.5760      1.7719      2.5908
C      3.2175      4.0087      6.7943
C     15.4295      6.3158     17.0826
C     16.1051     10.4792     16.8166
H     -2.1745      2.6278      5.8906
H      7.7912     10.6709      9.6666
C     16.8358      9.2222     16.4825
H      7.4875      9.7119     11.4948
H      8.1513      3.2683      2.9621
H     12.9923      6.8951     10.9308
H     -1.0894      5.3517      6.4794
C      3.3373      2.6004      7.3922
H      9.3674     -2.6694      0.5017
H      7.3774      2.4932      4.4211
O     14.7912     10.2840     15.1406
C      8.7864      0.1976      8.3910
C      6.5722      6.1789      9.7634
H     15.2464     -5.7747      8.9752
C      6.0740      2.7295      2.9090
H      6.0856      5.3241      7.3168
H      6.2165     10.0457     12.0107
H      5.0391     -2.1558      6.9238
H      4.2540      8.8063     11.5095
C     17.0924     10.9545     17.8926
C     10.0094     -4.5861      4.8463
O     14.6035     -4.4254      4.9031
C     11.0136     -5.6809      6.8775
C      8.8086      8.2591     12.1443
C     20.2968      7.9713     13.2781
C      6.5053      7.2163     -0.6258
H      5.1826      3.7445      1.2571
H     17.3324     10.1576     14.8919
H      0.9785     -0.7105      3.9499
H      8.4005     -8.2949      9.7292
H     15.0895     10.3732     17.3279
C      6.6518      7.3862     10.7514
C      8.2749      5.7886      3.4348
H     20.4907     11.0282     13.4417
C     -1.2280      6.4463      4.7107
H     14.6166      8.3387     20.6631
H      4.3017      0.4936      2.1725
H      6.0353     10.7120      9.3205
H      3.9019      5.9576      0.8488
C     10.5561     -1.7704      7.2655
C      5.3120      5.9128      9.1974
C     15.7329      7.5412     17.8314
C      4.7194      5.8709      0.0434
C     17.5684      9.1664     15.3475
H      9.0203     -5.1760      4.9674
H      8.5847      8.3436      2.7907
H      3.8454      1.7548     10.3544
H      6.8070     -0.4452      9.1631
H     19.1759     11.2847     17.9690
C      0.1244      2.9031      8.8334
C     13.2912      8.6954     11.9881
C      1.9688      2.0358      7.4179
C     -0.2509      5.9754      1.1124
H      5.8113      7.8890     -0.5370
H     -3.5942      3.5669      4.8747
H      5.4276      5.0489      5.7951
H      6.6801     11.8967     10.7247
C     10.0137      7.6883     12.7754
O     14.9287     10.8972     12.7106
C      6.2769      8.8621      8.7616
C     15.7248      8.3985     20.3795
C      3.7019      1.3398      9.4187
C      3.3887      1.4230      4.5673
H     10.8331     -2.5762      1.4602
H      4.5634      6.5876     -0.7309
C      3.9357      3.3872      3.0369
H      8.9495     -2.7290      5.2621
C     10.6077     -4.3600      0.7964
C     10.8548      7.5883     11.6114
H     13.2046     -3.8899      6.7837
C      5.4612      2.9991      5.0505
H     18.3424     12.6572     17.1612
H      8.0366      3.1913      1.4460
H      9.0322      1.2307      8.4019
C      3.4112     -0.6713      8.4385
C      5.4984     -1.2281      7.2484
C     -1.8838      4.7294      3.1835
C     16.1477      9.5722     19.7487
C      2.6045      3.5353      2.4061
C      4.5000      8.7063     10.3764
H      2.7776     -1.2370      7.7438
H     15.7049      8.5051     13.5670
H     -2.2889      4.9365      1.3631
H     12.7652      9.4815     12.0065
H      2.0194      3.6968     -0.8730
O      5.2290      7.3336      6.5433
C     13.3488     -4.9273      4.3874
H     16.4691     10.2417     20.4307
C     10.3069     -4.6018      3.4156
C     10.9628     -5.5153      2.6837
H      5.8609      9.8712      8.5028
C      9.8089     -5.8289      7.5338
H      1.2357      2.4315      5.0840
H     15.1477      7.9697     12.2822
H      5.8898      1.9603      1.9174
H      0.3422      3.8814      9.4934
C      3.3531      1.7505      0.7728
C     12.7372     -4.4837      1.9167
C     -1.5384      2.5596      1.5923
C     -0.1006      3.6719      3.7793
C      8.0752     -1.6654      7.1357
H      1.9988     -0.0581      5.0381
H      8.9953     -5.8504      6.7474
H     15.4412     10.0225     19.2789
H     15.0113      7.0192     13.1633
O     12.7610     -3.4371      5.9980
C      6.9435     -1.0026      7.3691
C     13.3752     -6.5442      6.5777
C     14.8018      7.8363     13.7443
H     15.4621      8.6803     15.7056
C     13.3859     -5.5244      2.8656
H      8.9799     -0.3038      9.3158
C      2.6828      1.0096      3.4480
C      0.4060      2.8836      7.4378
C     10.0897     -3.1603      7.0494
C     -2.6040      3.1963      4.9087
C     18.2661     11.5377     17.6661
C      3.2991      3.8161      9.6465
C     -0.3699      2.9302      0.8940
C     11.6326     -5.2913      1.4780
C      4.7397     -0.4373      8.1252
N      1.7695      0.1672      4.0794
C      2.9953      0.8228     -0.4166
O     17.1545      6.3374     15.5328
C      9.4500      6.4234      0.8047
H     18.2887      9.4135     18.8146
H      1.9219      1.2296      8.3509
C     -2.4460      4.0277      1.9444
C     10.0167     -5.7174      9.0975
H      1.8251      1.2311      6.3783
H      7.7854      4.9075      0.8638
H      7.4410      9.4653      7.3158
C     10.1127     -3.2083      1.1259
H      3.9632      7.8734      9.9111
H     13.6039     -6.2615      9.1061
H     -2.5938      4.8140      5.3398
H     11.2987     -3.7110      4.4221
H     14.7101      7.8687     10.4640
H      3.4184      1.3423     -1.3856
C     14.7918      7.5348     15.3229
H      4.3671      6.5545      9.3524
C     14.6218      8.3866     11.4597
C      6.7803     10.8656     10.1814
H      3.3622      3.9873     10.6682
H     16.5769     11.4191     16.1235
C      4.2513      8.2187      4.6663
C      7.9523      7.3628      2.8547
C     19.8808     10.5305     14.1984
C     18.8428      8.4613     14.9451
C      3.8213      6.1787      6.3839
C      1.8379      5.0009      2.3209
C      6.1345      5.9958      0.3835
C      5.6203      7.5887      4.2744
C      8.1069      6.9701      1.1663
C      3.8905      5.0769      7.3920
C      1.7408      5.1451      0.7398
H      7.9088      6.9404      5.3743
C      6.0785      7.4993      5.5541
H      9.4436      5.2709      0.9549
H     -0.8099      2.4843      0.1054
C      7.1642      5.6773      1.2698
H     -0.2081      2.8723      3.0164
H     10.9323     -6.2062      9.0491
O      7.3886      7.4168      6.1850
H      9.1762      9.2309     11.9862
H      1.8120      2.9282      3.0912
H     12.6728     -3.7450      2.7483
H      4.6380      4.6670      0.0464
H      4.2559      5.2785      4.0931
C     12.3468      7.3836     11.6076
C     15.5008      6.1885     15.6923
H     15.0636     -7.4903      9.0711
C     -1.4682      4.0549      4.4330
C      0.3172      6.6289      5.1986
H      4.2270      9.5828      9.7451
H      3.7417     -0.7204      5.6706
C      1.2013      5.6716      4.5603
H      2.5770      0.1705      1.8615
H     12.2925     -6.3840      8.4384
C      7.9652     -7.1279      9.3477
C      4.8965      0.9391      8.4914
O      6.0062      4.3122      5.3382
C      6.5894      7.7102      2.9831
C      9.9526     -3.4322      5.5677
C      0.0377      6.0537      2.7097
C     -1.4803      6.1971      3.2832
H     16.2154      8.3695     21.5604
H     15.5116      9.3435     11.7011
H     -2.8510      2.3331      4.2491
C      2.7881      0.1829      9.1463
C      0.7758      4.9970      3.2314
C      5.1052      3.7308      2.3240
H     14.1522     -9.0214      7.5829
H      8.4284      8.1905      7.7838
H     11.2373     -1.2007      6.5996
H      7.8224     -2.3729      6.5407
C     14.4218     -6.5976      8.6714
C     -1.5505      5.1124      5.4690
C      3.2812      0.8971      2.0598
C      1.6039      4.3962      5.3416
C     14.6319     -6.8005      7.1709
C      2.4010      3.9707      0.1510
H     -1.1168      5.2748      0.9972
H      4.2616      2.4073      1.1448
H     10.8708     -1.9649      8.2427
H      2.1291      0.8881      0.0838
H     -1.6474      0.7996      2.4323
H      9.3905     -3.2534      7.8407
H      5.6064      1.3131      4.1527
C     12.1422     -4.1197      5.0626
C      8.7023     -5.8445      9.7015
H     17.7734      6.3981     16.2679
H     18.9203     10.7486     14.5639
C      9.1947     -0.8378      7.4751
H      9.9208      6.4506      1.7523
H     10.7870     -2.7926      5.3818
H      6.0642      1.8735      9.3912
C     12.3467     -6.0727      7.4433
C      0.5565      3.3820      5.0182
O      9.5143      5.8034      4.0014
C     11.0646     -5.2784      5.4172
C      6.5931      2.5143      7.1568
C      5.5335      2.0838      6.3208
C      3.5453      0.5880      5.7686
H      5.9272      8.1815      7.8760
H      5.5545      3.8611      8.3937
H      8.1918      9.2849      9.4668
H     10.8474     -4.0169      7.1912
C     14.6300     -8.2855      6.8995
H     -2.3902      2.4719      0.8381
C      3.4874      5.4507      4.9687
C      3.5489      2.6584      8.8341
H     20.5822     11.0363     15.0070
C      8.0536      7.7915     10.7657
H      3.2666      5.6281      7.9059
H     10.2665      6.6457     10.9055
H      7.0176      3.5363      7.3425
C      3.8809      2.9072      4.5659
C     17.1647      9.5820     18.6501
C      7.2501      0.0759      8.2796
C      7.5826      9.1215      8.3774
C      5.2122      5.0748      8.0657
C      6.3055      1.3842      8.5019
H     -0.8777      2.6365      8.7696
H     10.3388     -4.7734      8.9731
H      0.6777      3.2232      0.7207
H     18.6585      9.3292     13.1856
H     -0.8959      4.0174      0.5612
C     14.5186     10.1002     13.6204
H      2.6073      4.3599      9.0571
H     10.0324     -3.5589      2.5856
