258

C     19.8067      8.9397     13.8777
C      4.1214      1.2527      6.7848
C      2.0966      2.8484      1.3851
C      6.9983      4.9602      2.8421
H    -15.5963     16.3572      2.2962
C      7.2203      3.5323      3.1604
C      3.7670      3.7970      5.2603
C     -6.5689      9.7656     10.3065
C     15.9789      6.8666     19.4940
C      5.6039      1.4249      3.5051
C     -7.1616      8.7169      9.3109
C     13.8494      8.7431     13.4905
N    -13.3244     15.9092      6.6609
C      0.2605      5.7867      0.6892
O     -1.4126      2.5282      1.5583
C      3.7301      3.6155      6.6304
C     15.7151      6.1808     17.2487
C     16.4852     10.4653     16.9612
H    -11.3555     13.7805      9.8330
H    -16.4681     16.5640      4.7006
H     17.0784      5.1001     15.1631
H     -7.1773     11.1866     11.8716
C     17.2428      9.2645     16.3574
H     -8.9873      8.4052     10.6038
H     -5.8500     10.0104      9.5208
H      7.8069      3.3411      4.1062
H     12.5712      6.9657     10.2651
H    -13.9669     17.7700      6.4539
C    -10.0541     15.5359      7.5037
H     -2.2336      9.8660     -0.6057
H      6.4390      0.7561      3.5227
C     -4.7543     12.8244      8.7591
C      6.7708      6.3188      9.6011
H      2.4284      0.0271      6.3667
H     -9.9448     19.7448      8.9677
C      6.2893      2.6711      2.8395
H      6.2803      4.9506      7.4166
H     -5.8223      9.3785     11.1157
H     -8.4398      6.8794     10.4264
C     17.6684     10.7435     17.7026
C     -2.8374      8.7686      5.2479
O    -10.8978     21.5392      5.2420
C    -14.4726     21.0517      7.1206
C      8.7402      8.1360     11.9849
C     20.6501      7.8186     13.1921
C      6.6501      7.0629     -0.4659
H     17.6639     10.3824     14.5652
H      0.4574     -0.3517      3.4164
H    -17.9283     19.3978      7.9454
C      7.1021      6.6642     11.0882
C      7.6988      5.8001      3.6672
H     21.6796      9.2676     15.1952
C    -14.1286     19.6549      5.0559
H     15.1859      8.4565     20.8111
H      3.6586     -0.2541      2.4427
H     -8.1679     11.0241     10.4323
H     14.9266      7.1586     13.0811
C     -2.9678     11.6502      7.7880
C      5.5339      5.8106      9.2015
C     15.8757      7.3379     18.0719
C      4.7541      5.9607      0.5292
C     17.8229      9.5421     15.1550
H     -3.5734      8.0661      5.5913
H      8.6856      7.4891      3.5882
H     -8.5729     13.8311     10.1238
H     -6.6350     12.3984      9.7801
H     18.1900     12.8525     16.8843
C    -12.4443     16.6850      8.8217
C     13.4031      8.1598     12.0482
C    -11.3651     14.6086      7.7725
C     -0.7519      6.5952      1.4715
H      5.7358      7.8042     -0.8665
H    -15.3112     15.5812      3.9555
H     -8.1267      9.8039     11.4962
C      9.9863      7.4590     12.6613
O     14.9714     10.4672     12.4722
C     -6.8430      8.7497      7.9877
C     16.1536      8.1786     20.3902
C     -9.1564     14.4170      9.2552
C      2.7875      1.3901      4.7223
H     -0.5722      9.9763      0.5916
H     -6.4038     12.3688      6.9520
H     -9.4215     16.6079     11.0117
C      3.5802      3.2089      3.1004
H     -3.7559     10.1099      6.5825
C     -2.0865      8.4246      0.6468
C     10.9300      7.0432     11.5817
H     -1.4440     10.0666      7.4576
C      5.0487      1.7477      4.7810
H      4.1799     -0.3269      5.6286
H     -4.8713     13.6962      8.2121
C    -10.4202     12.2894      8.7357
C     -8.2919     11.3863      7.7502
C    -14.9481     18.1007      3.2675
C     16.6315      9.4338     19.4698
C      2.1692      3.4542      2.7571
C     -8.1929      7.9990      9.9345
H     16.0363      8.4301     13.7204
H    -16.0634     17.9348      1.4710
H      1.9068      3.6114     -0.8891
O      5.4623      6.3579      6.2994
C    -12.1543     21.2008      4.6122
H     -8.6348     11.7192      6.8018
C     -2.4697      8.8116      3.7638
C     -1.8372      7.8186      2.9977
H     -7.8483      8.3455      7.1540
C    -15.6340     20.6698      7.7276
H    -11.3676     15.8460      5.3620
H     13.7348      8.6146     10.0260
H      6.8204      2.5296      2.1161
H    -11.5095     16.9578      9.4888
C      3.1042      1.7582      1.1662
C    -12.9347     21.5356      1.9904
C     -0.3630      3.1641      2.0348
C    -13.1061     17.0592      4.2444
C     -5.5955     10.8997      7.2447
H      1.0819      0.2750      4.8676
H    -16.8397     20.2978      7.8306
H     15.9541     10.0605     19.2366
H      0.7027      6.3689     -0.1488
O    -12.6974     22.7871      6.0101
C     -6.8587     11.6963      7.8619
C    -12.3854     20.0463      6.8565
C     15.0226      7.8301     13.8711
H     15.1336      8.4518     15.6545
C    -12.1675     20.6328      2.9580
C      2.3614      0.6162      3.2385
C    -12.7735     15.4856      7.9789
C     -1.9114     10.7355      6.8242
C    -15.5019     16.3825      4.7032
C     18.4307     11.8697     17.4308
C     -9.8941     16.6668     10.0455
C      0.8097      2.1137      1.3737
C     -1.3590      7.9249      1.7124
C     -9.0492     12.2154      8.6489
N      1.4605     -0.2437      3.9139
H      4.1764      1.3226     -0.7737
C      3.0908      1.2835     -0.4158
O     16.8838      5.7796     15.6225
C      9.4844      6.6271      0.8625
H     18.6153     10.2938     19.6206
H    -13.4830     14.9814      8.5806
C    -15.8337     17.3594      2.4750
C    -15.6527     20.5266      9.0435
H    -11.7606     13.8965      6.8617
H      6.6854      4.9491      0.5502
H     -5.1262      8.5377      6.7378
C     -1.5745      9.4656     -0.0492
H      5.0668      6.5901      8.6849
H    -11.5511     19.7072     10.0501
H    -13.9241     22.6875      4.3437
H     14.9899      9.2630     11.4361
H      2.5383      1.9911     -1.0208
H    -13.2391     17.0304      9.5921
C     14.9938      7.4226     15.1960
H      4.9083      5.4313     10.1902
C     14.2018      8.6504     11.1515
C     -7.4463     10.3759     11.1354
H     15.4662     10.2280     17.5922
C      4.3690      8.0601      4.2901
C      7.8239      7.1653      2.9065
C     20.9970      9.7650     14.4477
C     18.9282      8.6041     14.9106
C      4.2257      5.8595      6.2246
C      1.6249      4.8036      2.5147
C      6.2119      6.1023      0.5303
C      5.5975      7.2926      3.9761
C      8.1525      6.8696      1.3138
C      4.3510      4.8194      7.4347
C      1.2799      5.0306      1.1293
H    -15.9172     18.2766      5.7693
C      6.2986      6.7199      5.3072
H      9.0078      5.5923      0.4144
H      0.9672      1.2381      1.8203
C      7.1921      5.6699      1.4819
H    -13.2061     16.6208      3.1298
O      7.4582      6.4498      5.7496
H      8.6615      9.3438     11.6483
H      1.6535      3.1027      3.7303
H    -13.0938     22.5826      2.2339
H      3.2455      4.5627      0.2537
H      4.8527      5.2562      4.2163
C     12.1848      7.3893     11.3747
C     15.6409      6.0613     15.8476
H    -10.8050     18.5123      9.3096
C    -14.5125     17.2753      4.4831
C    -12.6919     19.8860      5.3325
H     -8.7900      8.0511      8.9163
H      1.7847      1.7244      5.3115
C    -11.7445     18.6946      4.7516
H      2.3751     -0.2719      1.4332
H     16.5265     11.2358     16.2054
H    -13.0706     21.1673      8.6136
C    -17.9206     19.2482      8.8559
C     -8.5211     13.7032      8.1615
C      6.4704      7.8517      3.0374
C     -2.9983     10.1944      5.8777
C    -13.1852     19.3466      2.8177
C    -14.5666     19.5748      3.6634
H      4.3023      6.8699      0.7720
H    -15.3784     16.0131      5.7044
C    -10.7279     13.6558      8.9049
C    -12.3393     18.2077      3.4289
C      4.8921      3.5232      2.5181
H    -11.3033     17.1027      7.6230
H     -2.2245     12.1946      8.3663
H     -5.3113     11.1237      6.1656
C    -10.9777     19.5292      8.8563
C    -14.6850     18.2481      5.6374
C      2.9145      0.6637      2.0231
C    -11.8429     17.6526      5.8941
C    -11.0293     19.3184      7.2706
C      2.2627      3.9605      0.1757
H     -1.4610      5.6710      0.9976
H      2.8222      0.1431     -0.4306
H     -1.3445     11.7540      6.6337
H      4.7582      1.1068      2.8924
C    -13.3408     21.9976      5.0337
C    -17.0293     20.3743      9.4974
H      4.4299      4.9253      0.2782
H     22.0265      9.9727     13.9197
C     -4.3613     11.6203      8.0498
H      9.9261      6.7983      1.7848
H     -3.4648     10.9712      5.2754
H     -6.6867     14.5259      9.4718
C    -13.1729     20.6305      7.7724
C    -12.3278     16.4335      5.4636
O      8.8292      5.5755      4.2609
C    -14.4948     21.0592      5.7130
C     -6.3393     14.5759      7.1898
C      5.4879      1.8980      6.1487
C      3.2924      0.4280      5.9007
H      9.0248      6.3737      4.7466
H     -5.3877     14.8896      7.6359
H     -4.7905      9.5666      8.2480
H    -12.3527     22.3023      6.7119
C    -11.2552     17.9596      7.0014
H      0.0147      3.9740      1.2438
C      3.9767      5.2373      4.9615
C     -9.5288     15.7629      9.0566
H     20.8950     10.8261     14.8829
C      8.3049      7.3263     10.8673
H      3.4659      5.0896      7.9003
H     10.2005      6.4245     10.7964
H     -6.1164     13.7297      6.7560
C      3.7415      2.4918      4.4288
C     17.7234     10.1196     19.0061
C     -6.2210     12.7679      8.8809
C     -5.5712      9.3830      7.5362
C      5.5662      4.5978      8.0621
C     -6.9138     14.0741      8.4795
H    -12.4758     17.5880      8.2272
H    -14.7318     20.7368      9.4594
H      1.0227      1.8203      0.3208
H     19.2591      9.5313     13.0898
C     14.3574     10.0963     13.4805
H     -9.7636     17.6793      9.9149
H     -2.8979      9.6796      3.0622
