263

C     19.5901      8.5699     13.6954
N     -2.5135     10.5426      2.1344
C      3.8230      1.6216      6.9808
C      2.0921      2.3938      2.1580
C      7.2422      5.0318      2.0616
H     -3.2658      6.5826      2.2947
C      7.3519      3.6122      2.2450
C      3.4866      3.9799      5.4832
C     16.5259      7.4349     19.1864
C      6.1264      1.7327      3.7762
C     -6.8586      8.4418      8.8490
C     13.4459      8.6038     13.7852
N      0.1573      2.7735      6.2133
C      0.4797      6.0386      0.8461
O     -1.6657      2.8066      1.3099
C      3.2297      4.2248      7.0652
H     13.2710      7.0282     11.3510
C     15.8546      6.3610     17.0472
C     16.6249     10.5364     15.9954
H     -2.7302      3.1016      7.2906
H     17.1547      5.7630     14.2282
C     16.8656      9.1413     15.9181
H     -8.1750      7.4477      9.8720
H    -10.5929     17.6801      9.5555
H     -0.8501      5.6827      7.2354
H     -6.9348     14.4837      8.8613
C      2.8509      2.7593      7.9514
H      6.9576      1.7010      4.5337
O     14.4018     10.2524     15.6920
C     -5.1956     11.9218      9.2308
C      6.2807      5.9231      9.4335
H      4.1533      0.2816      6.0170
H      3.9163      5.7018      8.3736
C      6.3166      2.9050      2.7657
H     -9.0175     11.8780      9.4001
H      2.1906      8.1290      9.1312
C     17.1689     11.0970     17.2100
C     -2.8121      8.5483      5.3624
O      2.0489      8.6507      4.7380
C     -1.1275      8.4150      7.4293
C      8.7149      8.0241     11.7423
C     20.4829      7.6447     12.7865
C      6.4394      6.9340     11.7766
H      5.4383      3.6389      1.2238
H     16.9465      9.2636     13.7985
H      1.5574     -0.8773      5.5399
H     -5.3894      6.1769      8.1786
C      7.6836      3.0515      8.6313
H      0.8602      1.1741      2.3246
C      7.1539      6.3863     10.5514
C      7.9240      5.7306      3.0480
C     -1.0424      6.8848      5.3135
H     16.5857      8.4494     20.7478
H     16.2512     11.3202     15.1575
H      2.5571      5.4031      0.7170
C     -3.3163     11.1460      7.8635
C      6.1988      4.6861      9.2219
C     16.0731      7.8117     17.7056
C      4.8491      4.9970     -0.8645
C     17.4701      8.6357     14.6878
H     -3.8142      8.1030      6.0495
H      8.3531      7.2639      3.5542
H     -9.5376     13.8387     10.6594
H     -7.4207     10.3636      9.1067
H     18.9619     11.7579     16.4192
C     -0.9462      3.3569      8.2268
H     20.8909     10.3266     14.5361
C     13.1439      8.9182     12.2667
C      1.5792      2.1610      8.0370
H     11.3978      6.2849     11.3707
C     -0.8915      6.1553      1.5757
H     -2.2491      2.5517      5.7663
H     18.7986      8.9811     12.8489
C     10.1242      7.3125     12.7751
O     15.1827     10.5080     13.5918
C     -5.8077      8.3999      8.0291
C     16.8919      8.7601     19.8999
C     -9.5997     14.3413      9.5430
C      2.4142      1.1507      4.9987
H     -1.4789     10.5233      2.5448
H     -7.3018     13.0491      6.6320
H      3.2848      6.8461      9.2786
C      3.9613      3.4477      3.2340
C     -2.3729      8.1727      0.9256
C     11.4827      6.8690     12.2977
C      5.3400      2.1672      5.1258
H     17.2160     12.9849     16.6628
C    -11.0334     12.6922      8.4264
C     -8.6559     11.2605      7.2808
C     -2.2393      4.9624      4.3255
C     16.5976     10.1423     19.1165
C      2.6425      3.5021      2.6786
C     -7.4786      7.1469      9.1817
H    -11.9436     11.8027      8.5782
H     15.1593      7.3706     13.2824
H      0.3253      3.4662     -0.1073
O      5.7542      6.7291      6.3855
C      0.6860      8.1611      4.4254
H     -8.1371     11.9961      6.4849
C     -2.7039      8.2708      3.8393
C     -2.3454      6.9633      2.9877
H     -4.5752      9.9024      8.4821
H      8.2709      3.1446      2.0306
C     -2.3138      8.6348      7.9670
H      3.7968      3.9382      0.7833
H     -0.3624      3.4303      9.2387
C      3.0812      1.3630      2.1179
C     -0.5381      8.4669      2.0922
O      4.0533      3.8848     -0.1511
O      7.6362      3.7920     10.8344
C     -0.5274      2.9605      1.7682
C      0.4580      3.7399      4.1112
C     -6.1696     10.8023      7.2386
H     15.4864     10.1227     18.5624
H     -0.9533      9.8095      4.4429
H     12.3473      7.9763     10.5729
O      0.2157     10.2024      6.0237
C     -7.1842     10.9635      8.3002
C      1.0858      7.1582      6.7097
C     14.2360      7.2565     13.9652
H     15.1819      8.2348     15.2425
C      0.4663      7.5219      3.0603
H     -4.6403     12.7435      9.4510
C      2.2498      0.0351      4.0025
C      0.3396      2.9148      7.4895
C     -2.7277     10.5803      6.8683
C     -2.4801      3.4677      6.1506
C     18.0172     12.3001     17.0387
C     -9.8504     16.9894      9.9970
C      0.6009      2.1669      2.0401
C     -1.5770      7.4617      1.8752
C     -9.5270     12.1951      8.1737
N      1.7920     -1.1738      4.6336
C      3.6718      0.9367      0.8224
O     17.0579      6.5327     14.9795
C      9.2435      6.1045      0.3258
H     -6.7295      9.3881      6.2681
C     -2.5453      4.0542      3.3097
C     -3.1663      8.5892      9.5597
H      6.9135      3.1471      7.7849
H      2.5186     -0.0648      6.2202
H      7.4325      4.4076     11.5106
C     -2.8044      9.5373      1.0024
H     -7.7786      7.4272      8.1304
H      1.7210      6.4888      9.1329
H     -0.9449      9.2474      2.7509
H     14.3274      9.1693     10.3643
H      3.6295     -0.0110      0.5036
H     -2.0239      3.1003      0.3130
H     -1.8307      2.8908      8.3445
C     14.7116      7.3707     15.3226
H      3.1144      1.4476      0.0725
C     14.1710      9.5095     11.4497
H      7.5681      5.7004     11.1711
C      4.3707      8.7265      4.3367
C      7.4733      7.3682      3.0478
C     20.1804     10.1290     13.8889
C     18.7300      8.0760     14.6485
C      4.5012      6.1776      6.2021
C      1.8783      4.6118      2.5338
C      5.6936      5.9279     -0.0836
C      5.5415      7.8074      4.3752
C      7.9865      6.3578      0.4062
H     14.5638     10.4899     11.7497
C      4.4010      5.1904      7.4269
C      1.5708      4.8754      1.0233
H     -3.3567      9.0056      7.7800
C      6.4425      7.3528      5.4562
H      1.5490      1.5968      5.0772
H     -2.7432      4.2112      2.2009
C      6.8004      5.5374      0.8690
H      0.0650      3.3629      3.2280
O      7.5983      7.1963      5.6064
H      8.7140      8.9356     11.4811
H     20.1384     10.7711     13.1608
H      1.3325      3.0423      4.2527
H      1.7884      4.0962     -1.0547
H      4.7089      4.9939      4.5000
C     12.4952      7.7131     11.4466
H      6.1788      4.4968      6.9147
C     15.6563      6.0881     15.7386
C     -1.8080      4.6112      5.6200
C      0.4334      6.9667      5.5018
H     -7.5380      9.0960      8.8127
H      3.1858      1.7882      4.6049
C      1.3161      5.7702      4.7352
H      2.1488     -0.1233      1.8361
H     15.2352      9.8617     16.3229
H     -2.4136      8.5560     10.2824
C     -4.9482      7.2325      8.0061
C     -8.7769     13.5138      8.3824
C      6.2217      7.8457      3.1010
C     -3.0592     10.2515      5.3990
C     -0.1055      6.0818      3.1840
C     -1.3433      6.2993      3.9734
H     -2.6848     11.5082      8.7562
H      2.2686      2.9323     -0.3170
H      5.6603      4.7245     -1.5718
H     -3.5552      3.2686      5.5906
C    -10.9916     14.1551      9.0868
H     -1.7995      9.9483      6.9627
C      0.8284      4.9966      3.5778
C      5.1257      3.5169      2.2429
H      1.4961      5.0352      8.1464
H     17.9756      9.0244     19.9993
C      7.2300      3.7109      9.6428
H     -2.3705     11.4263      1.4910
H     -6.4801     11.4578      6.4567
C      2.3728      7.1712      8.6984
C     -1.2249      5.7726      6.2993
C      2.4011      0.1515      2.7658
C      1.2668      4.8922      5.8848
C      2.4181      6.8801      7.1968
C      1.5842      3.8007     -0.0692
H     -1.2690      5.0398      1.4748
H      3.8458      1.9531      2.7825
H     -3.4753      9.5441      9.9410
H      4.5601      1.4304      0.1595
H     -4.4046      6.6848      7.2232
H      8.3022      2.2882      8.9842
H     -2.1920     10.8182      4.7411
H      5.3831      1.0087      3.5655
C     -0.4250      9.2949      5.1879
C     -3.9596      7.3715      9.2835
H      4.5115      5.9377     -1.4616
H     -3.3501      9.1110      3.2675
C     -4.6974     11.1155      8.0998
H     -2.9041      3.0769      4.0702
H     -3.7748     10.9414      4.7712
C      0.3129      7.9877      7.6228
C      0.3546      3.8871      5.5628
O      8.2938      5.1915      4.0912
C     -1.3953      8.3946      5.9521
C     -6.8031     13.8462      7.0371
C      5.3837      2.0007      6.4729
C      3.1932      0.7548      6.0628
H     -5.6105     13.5647      6.9681
H     -8.1675     15.8355      9.1384
H     -5.0627     11.6203     10.2759
H     -0.3122      9.8080      6.7008
H     18.2432     12.8057     17.8992
H      0.6299      8.1685      8.6454
C      2.0458      5.1618      7.2282
H     -0.0585      3.8219      1.3173
C      4.0517      5.4773      5.0317
C     -9.3429     15.7800      9.2225
H     19.2102     10.3388     14.1290
H      0.3796      5.7903     -0.3377
C      8.4769      7.0087     10.4877
H    -10.3653     16.7608     10.9142
H     11.9222      6.6468     13.2402
C      4.2991      3.2079      4.5853
C     17.5349     10.0742     18.0978
C     -6.6800     12.2759      8.9210
C     -6.0158      9.4760      6.8949
C      5.6081      4.4650      7.8285
C     -7.3724     13.5594      8.4891
H     -4.0256      9.3067      0.7280
H     -7.0586     11.9665      9.8519
H      9.7682      5.2514      0.8152
C     14.4178      9.9943     14.4343
H     -8.9036     17.6302      9.9870
H     -2.0463      8.9864      3.7062
