266

C     19.6462      8.6323     13.5710
N     -1.8107     10.7973      1.8425
C      3.9376      1.3968      7.0466
C      2.0708      2.4967      1.5800
C      7.3966      4.7989      2.2610
H     -3.0669      7.1505      2.5815
C      7.2034      3.5294      2.4818
C      3.0561      3.8778      5.3320
C     16.0913      7.0652     19.4333
C      5.8757      1.7039      3.8222
C     -7.1884      8.1929      9.5413
C     13.7659      8.7339     13.5589
N     -0.2137      2.7736      6.4723
C      0.1817      5.6439      0.5670
O     -1.4873      2.4514      1.3288
C      3.1070      3.9609      6.9792
H     -0.2487      5.0437     -0.0345
C     15.5659      6.2120     17.4668
C     16.3148     10.3289     16.5064
H    -11.5099     14.0027      9.9841
H     -3.3373      3.5398      4.9055
H     17.6619      5.6396     15.2809
C     16.9704      8.8606     16.2533
H     -8.7730      6.9144     10.7554
H     -6.7519      8.9294     10.3289
H     -1.5013      4.7669      6.5266
H      7.9838      2.4734      7.9441
C      2.8533      2.6827      7.6189
H      6.8633      1.0746      3.8246
O     14.3394     10.7062     14.7193
C     -4.8073     13.0392      8.2493
C      6.4505      5.7940      9.9078
H      2.2064      0.3532      6.8923
H      2.7857      6.6079      9.1767
C      6.2870      3.1131      3.2630
H      5.6460      3.2713      6.3914
H     -7.8346     10.7535      9.9526
H     -9.3251      7.9875      9.4355
C     17.3035     10.9374     17.2990
C     -2.9791      8.5223      4.9509
O      1.8825      8.6120      4.8852
C     -1.5904      8.0940      6.9855
C      8.4125      8.3959     11.7335
C     20.3171      7.6779     12.7465
C      6.3560      7.0264     -0.9143
H      4.8419      4.1594      1.7672
H     17.5958      9.7161     14.2056
H      2.0063     -1.6308      3.7161
H     -3.4774      5.8922      8.3048
C      7.8794      2.7662      8.9973
C      6.9521      6.8345     10.5766
C      7.8137      5.6141      3.2885
H      8.2104      7.2762      2.0941
C     -1.1111      6.7034      5.1196
H     16.2782      8.4535     21.0016
H      2.9258     -0.8373      1.8023
H     15.3776      6.9616     13.1307
C     -3.2559     11.6882      7.1445
C      5.8839      4.8122      9.4222
O      5.3634      3.0150     10.4853
C     15.7145      7.5163     17.9364
C      4.7049      5.4021     -0.2965
C     17.5445      8.9317     14.9948
H     -3.3890      7.6552      5.3025
H      8.0679      7.7777      3.9911
H     -9.3973     14.4805     10.7231
H     -5.8929     12.3955      9.7417
H     17.8591     13.0255     17.1583
C      0.2420      3.8362      8.9002
H     21.1353     10.0511     13.5316
C     13.0794      8.8155     12.0332
C      1.6069      1.7524      7.8475
C     -0.8360      6.3845      1.4346
H      5.3536      7.4291     -0.9427
C      9.7551      8.0127     12.4006
O     15.7970     10.5672     13.1415
C     -6.3114      8.5808      8.6111
C     16.7550      8.2498     20.0798
C     -9.4374     14.4380      9.4914
C      2.6795      1.4285      5.0394
H     -1.7435     11.6178      1.1851
H     -3.2712     10.5557      0.4278
H     -7.8362     11.7985      7.0135
H     -8.7592     17.8261     10.3494
C      3.7446      3.1839      3.4150
H     -4.3872      9.4861      5.8685
C     -2.2109      8.7119      0.4991
C     11.0270      7.5978     11.1807
H     -1.5618     11.1797      6.4904
C      4.9885      1.9945      4.9808
H      3.9384     -0.2907      5.8411
H     -1.0712      1.5987      0.8790
C    -10.2540     12.4471      8.7944
C     -8.0577     10.9268      8.8825
C     -2.2209      5.4361      3.2250
C     16.4938      9.6925     19.5418
C      2.2072      3.3536      2.8459
C     -8.3889      7.4753      9.7432
H     16.3724      8.4063     14.2110
H      8.9105      4.4229      4.1705
H      2.0474      4.7310     -0.7027
O      5.3757      6.6407      6.4741
C      0.4735      8.0686      4.4405
H     -8.6243     10.0130      8.3540
C     -2.8081      8.7152      3.5776
C     -2.1018      7.8401      2.7969
H     -6.1563      8.1577      7.2950
C     -2.7292      8.6641      7.5742
H      1.7397      3.6843      5.2855
H     13.4363      8.8072      9.9317
H      4.0044      3.7060     -0.0712
H      0.0638      4.8549      8.3819
C      3.1209      1.2024      1.7622
C     -0.0959      8.5731      1.8763
O      4.9231      4.0149     -0.2488
O      7.4361      3.9849     11.1706
C     -0.2044      3.0144      1.5297
C     -0.3224      3.9868      4.2801
C     -5.6466     10.7285      7.6180
H     15.7461     10.2499     19.8125
H     -0.8588      9.7492      4.2369
H      0.6903      6.3078     -0.3230
O      0.2688      9.7761      6.0122
C     -6.9613     11.4569      7.9318
C      0.5423      6.8406      7.0110
C     15.2181      7.8280     13.9381
H     15.9061      8.1644     16.0427
C      0.4967      7.8025      2.8551
H     -4.4795     13.2056      9.2807
C      2.2042      0.3220      3.6624
C      0.1961      2.6793      7.8950
C     -2.6056     10.7649      6.3191
C     -2.2719      3.1985      5.1349
C     18.2864     11.9453     17.3356
C     -9.6251     17.1277     10.1791
C      0.8422      2.1861      1.2249
C     -1.2368      7.8181      1.5063
C     -8.9685     12.2174      8.6241
N      2.0367     -0.7974      4.2782
C      4.2749      1.5253      0.9612
O     17.0262      6.3695     15.1146
C      9.3282      6.5797      0.1438
H     18.0907      9.6391     18.7391
H     -0.7678      2.0034      8.3057
C     -2.5017      4.5781      2.3117
C     -2.9184      8.3972      8.8828
H      8.1107      1.9357      9.6446
H      1.5751      1.4229      6.8048
H      6.8453      4.7127     11.8362
H     -6.0851     10.4562      9.4654
C     -2.6004      9.9262      1.1610
H     -8.3744      6.3948      9.2359
H      1.6496      7.8154      9.2269
H     13.9925     10.3994     11.0124
H      4.1750      0.9270      0.1021
H      1.2647      3.8662      9.1755
C     14.9440      7.4647     15.4831
H      4.0636      2.3847      0.3992
C     13.4384      9.4393     10.8794
H      4.9134      3.5671     11.4615
H     15.6143      9.9720     17.3920
C      4.1727      7.9460      4.4800
C      7.8546      7.0608      3.1492
C     20.6369      9.2684     14.1709
C     18.6744      8.1992     14.8046
C      4.1938      5.9759      6.3476
C      1.8121      4.8165      2.7169
C      6.1058      5.9171     -0.0447
C      5.5589      7.1838      4.1438
C      8.0864      6.5671      0.5300
C      4.4351      4.9569      7.4598
C      1.3278      5.1348      1.3550
H     -3.0819      5.8607      5.7952
C      6.1550      6.6108      5.2380
H     -2.3236      2.3456      4.2619
H      0.3807      1.4344      0.5383
C      7.1059      5.5679      0.8741
H     -0.3224      3.0871      3.5917
O      7.3140      7.0413      5.9555
H      8.8753      9.1886     11.2893
H     20.4264     10.0078     15.0076
H      1.3690      2.7396      3.3688
H     -2.1483     10.8680      2.8177
H      4.5040      5.1245      4.3493
C     12.3746      7.5731     11.6358
H      6.4167      5.4164      5.1168
C     15.5780      6.1957     15.9973
H      1.8149      6.1787      9.4054
C     -1.7078      4.5612      4.5008
C      0.4415      7.0227      5.3982
H     17.8665      7.8375     20.2496
H      2.0098      2.3275      5.3598
C      1.1745      5.8473      4.9309
H    -11.1887     11.4667      8.7771
H     15.8204     10.0255     15.5919
H     -0.8170      8.1011      8.6262
C     -4.4958      6.4375      8.2994
C     -8.5369     13.7391      8.4160
C      6.3035      7.5668      3.0143
C     -3.4662      9.7483      5.4747
C     -0.1866      6.1961      2.8110
C     -1.4694      6.6052      3.6676
H      4.1047      5.7985     -1.2223
H     -1.9782      3.0925      6.1134
C    -10.7983     13.9499      9.2194
C      0.6025      5.1882      3.6359
C      4.8651      3.8688      2.8670
H      1.6193      4.8795      8.2344
H     -4.6354      9.3354      9.3181
C      6.7470      3.4948     10.0093
H     -2.6993     12.5561      7.3186
C      1.9492      6.8479      8.6939
C     -1.8631      5.5419      5.6045
C      2.3607      0.0193      2.2639
C      0.7662      4.7922      6.1325
C      2.0748      6.5053      7.2558
C      2.2999      4.8577      0.3108
H     -1.7741      5.6921      1.6079
H      3.7790      1.7068      2.7351
H      5.2842      1.8547      1.3110
H     -5.3160      5.4445      8.4685
H      8.0650      3.8131      9.2825
H      5.4264      1.4088      2.9524
C     -0.4927      9.1529      4.9766
C     -4.0220      7.5224      9.1645
H      3.9392      6.1744      0.3759
H     -3.8803      8.6530      3.2134
C     -4.6084     11.9123      7.6181
H     -3.1693      3.5212      2.2939
H     -4.0572     10.2390      4.5952
H     -7.2340     15.0211      8.9074
C     -0.3312      7.7644      7.4978
C      0.3783      3.6216      5.6448
O      8.6193      5.3021      4.3209
C     -1.4569      8.2101      5.5581
C     -6.6630     14.0675      6.9033
C      5.3093      2.0790      6.2290
C      3.1791      0.4613      6.0908
H      8.1867      6.6104      5.3919
H     -5.7689     14.4806      7.1188
H     -8.2614     16.3461      8.7032
H      0.9127      8.9164      6.0732
H     18.9208     11.8441     18.1552
C      1.8596      4.9288      7.1443
H     -0.5921      3.8878      2.0304
C      3.7878      5.2492      5.1003
C     -9.3915     15.9586      9.1372
H     21.6101      8.6609     14.7194
C      8.2396      7.4948     10.4926
H    -10.5003     17.9051     10.0336
H     10.5029      6.4170     10.7786
H     -6.3367     13.1016      6.5909
C      3.7692      2.5833      4.6574
C     17.2783     10.0884     18.6283
C     -6.2890     12.7042      8.7247
C     -5.6194      9.7665      8.7442
C      5.2457      4.2681      8.1800
C     -7.1787     14.0528      8.2995
H     -0.1255      3.4454      9.7713
H      2.4258      2.6153      0.6876
H     19.3062      9.3691     12.8932
H     10.0598      5.8250     -0.0526
H     -0.4225      1.5844      6.1479
C     14.6528      9.9925     13.6492
H     -9.6691     16.8077     11.3167
H     -2.9296      9.9705      3.5696
266

C      6.7827      8.5971      0.8322
N     -1.7960     10.1177     14.8984
C      3.7621      1.4025      7.3583
C      1.9865      2.7016      1.6046
C      7.3807      4.7930      2.1559
C      7.4447      3.4659      2.7180
C      3.2586      3.9700      5.4529
C      3.2336      7.1248      6.6324
C      5.9609      1.8041      3.9888
C     -7.0093      8.2967     22.5683
C      0.9102      8.6514      0.6691
N     -0.1024      2.5700      6.3147
C      0.3181      5.9052     13.3475
O     -1.5985      2.6576      0.8761
C      3.0615      4.1677      6.8737
H     -0.1068      5.0191     12.8264
C      2.4322      6.1761      4.7139
C      3.3084     10.3340      3.5406
H      1.5670      0.7670      9.9194
H     -3.3714      3.2331      5.2159
H      4.0320      5.1932      2.3863
C      4.2125      9.1635      3.3082
H     -8.4042      6.6823     23.3169
H     -6.6971      8.8754     23.5253
H      8.1112      2.7945      2.2251
H     -0.2192      6.9445     10.4238
H     -0.9215      5.5237      6.5117
H     -5.2226      3.5553      8.4717
C      2.9026      2.6545      7.6746
H      6.8963      1.1123      4.0608
O      1.5014     10.6530      1.8712
C     -4.7309     12.3586     21.5495
C     -5.8503      6.0132      9.5808
H      2.5754     -0.2836      6.3790
H      2.7378      6.2004      8.9033
C      6.3076      2.9611      3.2724
H     -7.1581      3.4952      7.6433
H     -8.8020      8.1894     22.0489
C      4.2560     11.0643      4.5247
C     -3.0991      8.3511     17.9572
O      1.8192      8.6145      4.7785
C     -1.6268      8.0264      6.9689
C     -4.4043      8.4681     11.9188
C      7.4293      7.7665     -0.2014
C     -6.7529      6.8662     12.0772
H      5.4144      4.7387      2.4752
H      4.5214      9.9716      1.2679
H      1.8497     -1.3699      3.8872
C     -5.5023      3.0888      9.4855
C     -5.6216      6.4210     11.0093
C      7.7923      5.8037      2.9963
H      8.0541      7.6404      1.9704
C     -1.3129      6.8009      5.0124
H      3.4520      8.8852      8.0152
H      2.5885     -0.0741      1.8078
H      2.5162      6.7874      0.6310
C     -2.9251     11.5051     19.9657
C     -6.7989      4.9401      9.1048
O     -7.4486      3.2520     10.7888
C      2.9993      7.7679      5.0613
C     -8.4366      5.4562     13.2660
C      4.5552      9.1549      2.0224
H     -3.8072      7.5941     18.4366
H      7.9524      7.8330      3.9255
H     -5.8431     12.6944     23.0532
H      4.2481     13.0623      3.7224
C      0.0898      3.4660      8.6496
H      7.5663     10.6076      1.0665
C      0.6150      8.4334     12.0628
C      1.6903      1.5470      7.7333
H     -2.1299      8.2280      9.6215
C     -0.7750      6.3741     14.3337
H     -7.9028      7.2554     11.6577
C     -2.9144      8.0111     12.3513
O      2.5319     10.5408     -0.0183
C     -6.6924      8.6752     21.2713
C      4.0025      8.2963      7.1863
C      3.3798      1.6356      9.5589
C      2.7590      1.3751      5.1835
H     -2.1423     10.8367     15.7195
H     -2.9521     10.5876     13.1464
H     -7.2514     11.9169     20.0139
H      4.2891      4.8350      9.9878
C      3.9170      3.3178      3.3220
H     -3.5916      9.2364     19.6387
C     -2.3393      8.3430     13.4340
C     -1.8562      7.5786     11.4460
H     -1.5507     10.5507     18.9375
C      5.1501      2.2335      5.1448
H      4.1311     -0.0914      5.9708
H     -1.4354      2.0557      0.0838
C      2.4120     -0.6614      8.7142
C     -8.4111     10.8226     21.2761
C     -2.3101      5.1193      3.3690
C      3.7028      9.3735      6.2966
C      2.2642      3.4354      2.7201
C     -8.0411      7.3319     22.5065
H      3.0138      8.4914      1.0796
H      9.4654      4.7707      4.1558
H      2.1667      4.3390     12.0727
O      5.7158      6.4201      6.3597
C      0.6920      7.9739      4.3807
H     -9.1564     10.2066     20.7460
C     -3.1445      8.6329     16.4724
C     -2.4921      7.5591     15.6435
H     -6.5583      7.6855     20.8009
C     -2.8251      8.0030      7.4757
H      2.2899      3.8257      4.8501
H      0.5785      8.6354     10.0486
H     -8.2458      3.4508     13.9323
H     -0.6154      3.8970      7.9694
C      3.1681      1.7867      1.7077
C      0.0186      8.5161      1.9802
O     -8.1714      3.8277     13.0162
O     -5.7751      4.1516     11.7135
C     -0.4408      2.9555      1.3403
C     -0.4040      4.0136      4.2357
C     -5.7550     10.6902     20.4243
H     -3.7003      7.3925      6.5854
H      2.5723      9.2400      6.3584
H     -0.7506      9.7967     16.9724
H      0.4032      6.4814     12.5001
O     -0.0045      9.6618     18.7034
C     -6.9962     11.2822     21.1739
C      0.6211      7.1371      6.7511
C      2.2388      7.8488      1.2223
H      2.5162      8.1578      3.0084
C      0.5548      7.5122      2.9830
H     -4.0285     12.2284     22.5115
C      2.5011      0.3054      4.0161
C      0.4183      2.3122      7.6568
C     -2.7065     10.6570     19.0757
C     -2.4029      3.3546      5.1987
C      4.8660     12.3093      4.2831
C      3.3682      4.3001      9.9116
C      0.7130      1.9905      1.1600
C     -1.4186      7.7695     14.5773
C      3.7072     -0.7557      8.5297
N      1.8690     -0.5829      4.5214
C      3.9801      1.3685      0.4337
O      3.9296      6.3315      2.7540
C     -3.5523      6.3777     12.8192
H      5.3271      9.8244      6.3255
H     -0.2285      1.4077      7.8346
C     -2.6661      4.8728      2.0680
C     -2.8003      8.2226      8.7825
H     -5.7471      2.1349      9.2457
H      1.9824      1.0324      6.8003
H     -5.0312      3.3416     11.7173
H     -5.9265      9.6004     22.1386
C     -2.5898      9.6893     13.8400
H     -7.7321      6.3638     21.9126
H      2.3683      7.8724      9.2752
H      0.4188      9.3161      2.6003
H      1.3998     10.1764     11.2874
H      3.7186      0.4923     -0.0126
H      0.9690      4.0223      8.5806
C      2.0340      7.4013      2.6552
C      0.9747      9.2160     10.9887
H     -7.5878      3.3877     11.9568
H      2.5012      9.7846      4.1049
C      4.2704      8.1855      4.3864
C      7.7160      7.2066      3.0863
C      7.6657      9.4596      1.4866
C      5.6843      8.2934      1.7533
C      4.3285      5.9781      6.3629
C      1.5244      4.9196      2.6120
C     -6.9659      5.7320     13.1022
C      5.5277      7.6441      4.0629
C     -4.7942      6.6305     13.4132
C     -8.7097      4.9532      7.3620
C      1.4574      5.3875     14.1265
H     -2.6963      5.4022      6.2420
C      6.3641      6.5978      4.9848
H     -2.6841      2.4035      4.5423
H     -3.1503      5.8154      1.6580
H      1.1441      1.4219      0.2370
C     -5.8797      5.7146     13.8924
H     -0.5498      3.4595      3.0902
O      7.4450      7.3900      5.6383
H     -4.3130      9.7091     11.4670
H      7.3518      9.7132      2.5577
H     -1.6610      9.2473     15.3629
H      3.2759      4.8048     13.5323
H      4.4826      5.5912      4.2380
C     -0.5530      7.5423     11.4584
H      6.2814      5.3172      4.7524
C      2.5674      6.0904      3.1662
H      1.1290      6.4462      9.1672
C     -1.7660      4.5600      4.6229
C      0.2347      6.8861      5.3078
H      5.0627      8.1763      7.2727
C      1.0448      5.7220      4.8907
H      1.7307     -1.4048      8.7709
H      1.3183      1.0561      2.7704
H      2.9009     10.8379      2.6977
H     -0.1386      7.9471      8.6058
C     -4.9247      6.5265      8.6662
C      4.3157      0.6435      8.6914
C      6.1782      7.8363      2.9069
C     -3.6653      9.6516     18.6284
C     -0.3843      6.3535     15.8940
C     -1.7646      6.6572      3.4032
H     -2.4694      3.0747      6.3166
C      2.0417      0.8275      9.0088
C      0.3467      5.1366      3.6456
C      5.1863      3.8196      3.2060
H      1.2201      4.8582      7.9459
H     -4.7162      9.0270     21.0388
C     -6.4499      3.9111     10.3958
H     -1.8623     12.1355     20.2440
H     -5.6495     10.2561     19.2784
C      1.9794      6.8893      8.7767
C     -1.6441      5.5629      5.8189
C      2.3675      0.6417      2.6159
C      0.9980      4.6874      5.8963
C      1.9230      6.6656      7.2642
C      2.2048      4.5746     13.1868
H     -1.3330      5.2866     14.3059
H      4.9048      1.7315      0.7868
H     -4.0955      5.9233      8.4304
H     -4.5634      2.8587     10.0181
H      5.3385      1.1104      3.3965
C     -0.5586      9.0544     17.7607
C     -3.9112      7.2474      9.5925
H     -8.0506      5.7673     14.2726
H     -3.8256      9.4418     16.2783
C     -4.3527     11.5782     20.5450
H     -2.5098      3.8417      1.4211
H     -4.5425      9.9141     18.4707
H      6.0198      1.5540      8.9755
C     -0.2272      7.9111      7.6321
C      0.2584      3.7572      5.5150
O      8.3289      5.3997      4.1765
C     -1.7336      8.1359     18.4024
C      6.3074      1.0761      6.9358
C      5.1138      1.7229      6.3646
C      3.2452      0.4649      6.1746
H      7.2210      8.2187      5.2051
H      7.2866      1.5825      6.9124
H      4.4329      3.0642      8.6025
H      0.8990      9.5891     18.4190
H      5.5387     12.4255      5.1772
C      1.7657      5.0838      7.1820
H     -0.0980      3.8832      1.2328
C      3.7791      5.3646      5.1567
C      3.4479      3.0262      9.0007
H      8.7073      9.4999      1.2180
C     -4.6092      7.4707     10.7078
H      3.0810      4.6736      9.0143
H     -2.2787      6.7490     10.8227
H      6.7331      0.1380      6.5494
C      3.8141      2.6247      4.7037
C      4.6025     10.0083      5.5081
C     -6.3148     12.5069     21.8387
C     -5.5141      9.6440     21.1877
C     -7.6473      4.5340      8.0525
C      5.8460      0.8081      8.4793
H     -0.4151      2.9214      9.2769
H      1.9425      3.3284     13.5165
H      6.3161      9.1801      0.0652
H     -2.5981      5.7843     12.8815
H     -0.6330      2.0027      5.6706
C      1.6719     10.0849      0.8729
H      2.6447      4.5803     10.7092
H     -2.0131      8.9043     16.5011
