261

C     20.1020     21.7844     13.6634
C      3.8696     14.6174      7.0946
C     15.2059      2.9787      1.2169
C      7.2430     17.5461      2.3029
H      9.3315      3.6573      3.1701
C      7.4182     16.3671      2.9669
C      3.7686     17.1264      5.4038
C      6.6502      9.6388     10.6900
C     16.1276     20.0230     19.4824
C      5.8438     14.6447      3.8144
C      5.8901      9.0014      9.5945
C     13.6579     21.6210     13.7539
N     12.8353      2.7749      6.2381
C     13.2470      5.9878      0.5127
O     11.5243      2.5975      1.3492
C      3.5108     17.0986      6.8046
C     15.7721     19.2648     17.2813
C     16.5337     23.5248     16.9226
H      1.0848     13.6472      9.4126
H      9.7875      3.6795      4.8418
H     16.7938     19.5172     14.6067
H      5.7644     11.1188     10.6301
C     17.1691     22.1870     16.4011
H      7.7126      9.8677     10.4057
H      7.5747     16.3542      4.2724
H     12.9204     20.3892     10.7409
H     11.9516      5.4458      6.9732
C      2.9249     15.8337      7.4872
H     10.4018      9.7400     -1.1182
H      6.5838     14.1182      4.2198
O     14.8626     23.6685     14.8823
C      7.9550     12.7316      8.7772
C      7.1969     18.7535      9.6911
H     16.0079      7.0781      9.1220
C      6.1804     15.5275      2.5899
H      6.5348     17.4763      7.7503
H      6.7631      8.9166     11.5053
H      4.9665     11.6686      9.4550
H      5.6334      7.1346      9.9387
C     17.7880     23.7798     17.8548
C     10.2792      8.4861      5.0391
O     14.9990      8.6050      4.8940
C     11.3541      7.7502      6.8933
C      8.7474     21.0673     12.0047
C     20.4087     20.4124     12.9445
C      6.3370     19.8218     -0.8742
H     17.8306      3.7863      1.5559
H     17.7107     23.0185     14.4878
H     14.9585     -0.7216      2.9942
H      8.1315      6.0327      7.7584
C      7.2775     19.5210     10.8899
C      7.8992     18.6292      3.2131
H     21.7912     21.4775     14.9646
C     11.8227      6.6385      4.9850
H     15.2151     21.8034     20.2140
H     17.3687     -0.0516      2.2116
H      5.0299      9.9168     11.0179
H     14.8721     19.8046     13.1784
C      9.6822     11.3798      7.9757
C      5.7965     18.3680      9.2091
C     16.0138     20.6361     18.1891
C      4.5413     18.6450      0.3228
C     17.8660     22.2445     15.2445
H      9.4725      7.8232      5.3550
H      9.0896     20.0930      2.9809
H      3.3417     14.3526     10.7415
H      6.1023     12.6817      9.5563
H     17.9182     25.6222     17.0084
C      0.2600     16.5805      8.8029
C     13.1666     21.4543     12.2947
C      1.6024     14.7896      7.7296
C     12.3328      6.1776      1.5573
H     10.5648      2.4009      4.5692
H      6.1721     10.9289     12.3528
C      9.8796     20.3446     12.5705
O     13.6533     23.5572     12.8978
C      5.8490      9.1499      8.1746
C     16.3333     21.4372     20.3378
C      3.2436     14.5707      9.6268
C     15.6377      2.0587      4.6034
H     11.8559      9.8396     -0.4453
H      5.7135     12.2509      6.6683
H      3.5863     16.9527     11.0952
C     16.7910      3.4146      3.1206
H      9.0276      9.6481      6.0944
C     10.7432      8.3562      0.4821
C     10.9934     19.8559     11.7939
H     11.2658      9.3896      7.3560
C      5.0240     15.1551      4.9120
H      3.9655     12.1968      6.2015
H      8.2706     13.6260      9.0169
C      2.6832     12.3538      9.2846
C      4.6633     11.4405      8.3141
C     10.7745      5.0178      3.6808
C     16.8277     22.6388     19.6335
C     15.5067      3.8468      2.6471
C      5.0976      7.9769     10.0149
H     15.4760     21.4168     13.5111
H      9.2778      4.9329      2.0753
H     14.4961      3.8613     -0.7552
O      5.7743     19.6019      6.5703
C     13.6656      8.1642      4.4286
C     10.3203      8.7326      3.6542
C     10.7148      7.6805      2.8578
H      5.4971      8.2490      7.8421
C     10.1903      7.3151      7.4974
H     14.9485      2.1438      5.5190
H     14.0134     20.8926     10.4417
H      6.5870     14.5551      1.9765
H      1.0671     16.4859      9.4792
C     16.2866      1.8766      1.0733
C     12.6813      8.5039      1.8990
C     12.6472      3.2131      1.5191
C     12.9833      3.9021      4.1475
C      7.0995     10.9346      7.0548
H     15.3757     -0.7711      4.7080
H      9.4264      6.8460      6.9829
H     16.0422     23.4233     19.6772
H     12.6467      6.3152     -0.2939
O     13.3256      9.4832      6.1290
C      5.9512     11.8414      7.5258
C     13.5317      7.3493      6.6446
C     14.8547     20.7316     13.9170
H     15.7012     21.6471     15.5168
C     13.5735      7.7578      2.8778
H      8.3113     11.9097      9.4754
C     15.6331      0.9594      3.6186
C      0.1851     15.3758      7.6976
C     10.7005     10.4555      7.1043
C     10.5918      3.2644      5.1272
C     18.3411     24.9742     17.9941
C      3.2001     17.0295      9.8692
C     13.8353      2.3935      1.2502
C     11.6136      7.6597      1.4720
C      3.7571     12.5937      8.3371
N     15.1070     -0.2328      3.8709
H     16.7404      2.1689     -0.9835
C     15.9835      1.4894     -0.4176
O     16.9440     19.2797     15.5569
C      9.3661     19.3263      1.0056
H     18.3090     21.7816     19.4045
C     10.0538      4.3797      2.7254
C     10.2604      7.5957      9.0804
H      1.5108     14.0490      6.9708
H      7.3031     17.4030      0.2621
H      7.3987      9.0166      6.6148
C     10.9215      9.5979     -0.0172
H      5.5407     19.4269      8.7958
H     14.2412      8.0763      8.9123
H     12.2327      9.9951      4.6411
H     15.2832     21.4245     11.1883
H     15.0540      1.3892     -0.7544
H     -0.4282     16.6008      9.7737
C     14.9650     20.6311     15.3753
H      4.9801     18.4050     10.0210
C     14.1702     21.5166     11.2882
C      5.7052     10.4067     11.4857
H     15.7488     23.2214     17.6825
C      4.4599     21.1470      4.5151
C      7.9876     19.8183      2.6012
C     21.1185     22.2325     14.5522
C     19.0545     21.3887     14.9242
C      4.4338     19.1847      6.3217
C     14.7356      5.1563      2.4761
C      5.8125     18.8470      0.0875
C      5.9357     20.3519      4.3916
C      7.9269     19.3928      1.0854
C      4.1479     18.1669      7.5161
C     14.1414      5.1318      0.9839
H     10.2819      5.7246      6.2454
C      6.5141     19.8348      5.5496
H      9.8541     18.2974      0.3322
H     13.7333      1.6093      1.9919
C      6.9643     18.2205      1.0121
H     13.0665      2.9305      3.5694
O      7.8551     19.9700      5.7288
H      8.8504     22.2633     12.3054
H     14.7076      3.0455      3.1496
H     12.2923      9.5753      1.8275
H     15.9832      4.6172     -0.2789
H      4.9908     18.8172      4.1773
C     12.1479     20.4556     11.4916
C     15.5659     19.3406     15.8497
H     13.8248      6.7972      9.2483
C     11.4124      4.2179      4.8211
C     13.5430      6.8734      5.2744
H      4.1061      8.0274      9.3061
H      2.3514     13.2096      5.8252
C     14.4557      5.7871      4.7978
H     15.5786     -0.0900      1.5035
H     16.3974     23.8487     15.8811
H     12.2616      7.4128      8.5942
C      8.0863      6.4029      8.7988
C      4.2676     14.1424      8.5076
C      6.5470     20.3339      2.9531
C     10.0379      9.8524      5.9023
C     12.8156      6.3028      2.8956
C     11.4068      6.4686      3.5685
H     16.5589     21.7345     21.3534
H      3.8799     19.4887      0.3262
H     10.6922      2.7535      6.1944
C      1.9982     13.8375      9.1131
C     13.6755      5.2631      3.4926
C     17.9159      3.2555      2.3375
H     14.4314      4.4862      7.8300
H      8.4178      8.3028      8.8549
H     10.5896     12.1260      8.1128
H      6.9896     10.8928      5.9295
C     14.8168      7.2318      8.7424
C     11.4148      5.3507      5.8219
C     16.3790      0.7175      2.1113
C     14.3256      4.7944      5.9325
C     14.6645      6.6901      7.2839
C     15.1053      4.1696      0.0955
H     11.4558      5.6565      1.2543
H     17.3479      2.2886      1.1355
H     16.4621      0.6278     -0.5590
H     11.4808     10.9471      6.6276
H      4.8337     13.7296      3.5970
C     12.5245      8.9766      5.1031
C      8.8653      7.5926      9.5191
H      4.3931     18.1890      1.2733
H     21.9267     22.7438     13.8903
C      8.4655     12.0275      7.4684
H      9.8526     19.7482      1.9172
H      9.9993     10.6146      5.0345
H      6.3562     14.5522      9.0965
C     12.6091      7.6027      7.5103
C     13.7100      3.5225      5.5324
O      8.4147     18.2846      4.3328
C     11.4577      7.8935      5.5219
C      6.5144     14.5282      6.9888
C      5.2452     14.9601      6.3745
C      3.4142     13.3817      6.2717
H      8.6206     19.0897      4.9517
H      7.2515     15.2592      7.2487
H      5.5517     16.3045      8.1724
H      8.0322      9.3090      8.3157
H     13.3698     10.3097      5.6953
H     19.2295     25.5285     18.1909
C     14.1870      5.2250      7.2076
H     12.9508      4.1681      2.0507
C      4.1524     18.5643      4.8911
C      3.2062     15.9768      9.0556
C      8.2620     20.5034     10.7999
H      3.6377     18.5826      8.5180
H     10.7961     18.8986     11.0542
H      6.8609     13.5568      6.4823
C     16.7568      2.9675      4.5895
C     17.9059     22.6330     18.7488
C      6.5117     12.7140      8.5260
C      7.2087      9.6205      7.5728
C      5.7061     17.3912      8.0856
C      5.8863     13.9993      8.2778
H      0.3191     17.5387      8.3405
H     11.0934      8.6233      8.8228
H     13.9885      1.6850      0.5811
H     19.7453     22.8531     12.9645
H     12.3610      2.0965      5.4130
C     14.0916     22.9408     14.0115
H      2.8606     18.0070      9.4085
