272

C     19.5250      8.5643     13.7803
N     -2.7046     10.2562      1.7690
C      4.2888      1.6886      7.1280
C      2.3426      2.4839      2.3162
C      7.7523      4.6813      2.2267
H     -2.5277      6.1413      2.3973
C      7.8028      3.2991      2.8708
C      3.4694      3.9239      5.1670
C     16.1195      7.2482     19.4707
C      6.5181      1.8680      4.0097
C     -7.3401      8.7191      9.1767
C     13.5244      8.7544     13.8126
N      0.1490      2.5357      6.2313
C      0.6381      6.2463      0.7201
O     -1.2071      2.0364      1.4852
C      3.3210      4.1382      6.9473
H     13.6099      7.3559     11.9267
C     15.4742      6.2791     17.4330
C     16.9748     10.5180     15.9544
H    -11.3554     13.5474      9.8774
H     -2.8489      2.3131      4.8264
H     17.4410      6.6985     16.0520
C     16.9617      8.9967     16.0101
H     -7.8284      7.4898     10.7554
H     -7.5549      9.6605      9.6144
H    -11.3329     17.5454     10.0264
H     -2.0041      5.4195      6.8211
H     -6.6726     14.8584      9.2586
H     10.1930      4.6203     11.7212
C      3.2253      2.9060      7.5600
H      7.3403      1.4605      4.3909
O     14.2623     10.4925     15.2576
C     -4.8908     12.3831      8.7957
C      6.3939      6.2937      9.5652
H      3.4828     -0.3060      6.3515
H      4.1965      5.4600      8.5142
C      6.5557      2.8315      2.9057
H      5.8788      3.3681      7.3609
H     -4.3777     12.0227      9.7979
H     -8.4030     12.2003      9.8867
H      2.2494      7.6537      9.0448
C     17.2922     10.8097     17.1561
C     -2.9715      8.3076      4.8784
O      1.9348      8.5928      4.8543
C     -1.6170      8.1441      7.0512
C      8.7641      7.8487     11.9041
C     20.4492      7.5811     12.7651
C      6.5668      6.6237     -0.9090
H      5.5600      3.8342      1.3357
H     17.3871      9.2579     14.1363
H      2.5010     -1.4035      5.6921
C      7.8840      2.6849      8.9208
H      1.2264      1.2610      1.4686
C      7.1203      6.3351     10.8434
C      7.8315      5.6525      3.2184
H      7.8061      7.2365      1.9686
C     -1.2623      6.6944      5.1733
H     16.3914      8.5899     21.5675
H     17.0002     11.2789     15.1191
H      2.5681      5.8803      0.7711
C     -3.4833     11.4802      6.7537
C      6.2393      4.7009      9.1460
C     15.9135      7.7110     17.8540
C      4.7157      5.4681     -0.1457
C     17.4017      8.4436     14.8661
H      8.0170      7.4282      3.9355
H     -9.3336     14.7016     10.9490
H     18.7420     12.0883     16.7468
C     -0.6006      3.7125      8.1625
H     19.3576      9.9642     15.1997
C     12.6583      8.8803     12.4555
C      1.6266      2.0926      8.0182
H     10.7785      6.9327     10.4960
C     -0.4690      6.1896      1.6302
H      5.5496      7.1557     -0.5707
H     18.8786      9.2686     13.1819
C     10.2643      7.2904     12.5537
O     15.3114     10.6953     13.4763
C     -5.7969      8.7905      8.4490
C     16.5225      8.4669     20.2602
C     -9.2621     14.5205      9.6998
C      2.5527      1.0380      5.0272
H     -1.8541     10.7335      1.5196
H     -3.5429     10.7630      2.2611
H     -7.1211     13.0873      6.5751
H     10.5972      5.2069     10.3389
H      2.2538      5.5628      9.3361
C      4.3351      3.3232      3.1659
H     -3.5614      8.7149      7.0359
C     -2.3070      8.2154      0.6173
C     11.2944      6.9027     11.5133
H     -2.1333     11.3994      5.1032
C      5.5323      2.4371      4.9607
H     17.4782     13.0581     17.3648
C    -10.2992     12.5058      8.6252
C     -8.1454     11.4167      8.0488
C     -2.1316      4.8204      3.7330
C     16.7626      9.6646     19.5367
C      2.6839      3.7099      2.7685
C     -7.7204      7.3000      9.7086
H    -10.4418     11.9572      9.6811
H     15.5258      7.7080     13.6891
H      9.2799      4.9775      4.2274
H      0.2683      4.2309     -0.7083
O      5.4755      6.6202      6.5059
C      0.5797      8.0201      4.7129
H     -8.5286     10.7242      7.2696
C     -2.6737      8.4027      3.3169
C     -2.1483      7.1387      2.9564
H     -5.0005      9.5370      8.6741
H      8.3929      3.2273      3.9206
C     -2.7942      8.8132      7.8974
H     12.6062     10.3856     10.8286
H      3.8001      4.2888      1.1760
H     -0.6492      4.0645      9.0860
C      3.1874      1.1577      2.0657
C     -0.3535      8.5018      2.1172
O      4.0851      4.2819      0.3094
O      7.6766      4.1020     10.8313
C     -0.2644      2.7998      1.5698
C      0.1443      3.4288      3.9499
C     -6.0174     10.7607      7.2452
H     -2.2525      9.6628      8.3880
H     16.1754     10.7751     19.7830
H     -0.7104      9.4309      4.1262
H     12.6735      7.9388     10.4503
O      0.0450      9.8138      6.1018
C     -6.7812     11.3135      8.3852
C      0.4746      6.9223      6.8668
C     14.4036      7.6058     14.0331
C      0.5418      7.6955      3.2243
H     -4.6230     13.1610      8.2876
C      2.6167     -0.0005      3.9933
C      0.3970      2.6106      7.4948
C     -2.5879     10.6847      5.8820
C     -2.4581      3.1665      5.5590
C     17.9708     12.0698     17.4938
C    -10.4578     16.7153      9.9272
C      1.1224      2.3483      1.5848
C     -1.2602      7.4519      1.5036
C     -8.7756     12.4963      8.8241
N      2.2577     -1.1030      4.7171
C      3.6779      1.2338      0.6146
O     16.7145      6.2625     15.4273
C      9.4845      6.3024      0.6790
H     18.6349      9.7758     18.3296
C     -2.5570      4.0134      2.6967
C     -2.9748      7.9580      9.0359
H      7.5779      2.3819      8.0068
H      8.0480      3.4810     11.5865
H     -4.4025      9.6296      5.7874
C     -3.1216      9.1784      0.9391
H     -8.6286      6.9596      9.2641
H      1.1701      6.4284      9.1245
H     -0.9990      9.2986      2.6491
H     13.8832      9.2598     11.9111
H      3.4221      2.2144      0.2043
H     -1.1987      3.3647      7.2924
C     14.6141      7.5950     15.3901
H      4.6760      0.8776      0.9166
C     13.1490     10.1697     11.8345
H      2.0395     -2.2041      4.4493
C      4.2438      8.2541      4.5911
C      7.5198      6.9831      3.1361
C     20.1747      9.3955     14.6745
C     18.6362      7.8750     14.8533
C      4.2946      6.0348      6.3192
C      1.9141      4.8138      2.4998
C      6.1885      5.4547      0.1217
C      5.3714      7.3440      4.3422
C      8.1477      6.5741      0.6751
H     13.9735     10.9253     12.5429
C      4.3108      5.0225      7.5275
C      1.7151      5.2464      1.1117
H     -1.8674      7.1454      7.2297
C      6.1427      7.2823      5.5822
H      1.5977      1.4387      5.0188
H     -1.6378      3.8538      2.0673
H      1.4980      3.1011      0.6030
C      7.2381      5.3493      1.1844
H     -1.0078      2.9891      4.1521
O      7.4726      7.2293      5.8671
H      9.0483      9.0094     11.2268
H     20.7056      8.7887     15.5718
H      0.8708      2.8024      3.5294
H      1.8969      4.9185     -0.7277
H      7.9061      1.6542      9.4016
H      4.5993      5.8046      4.3428
C     12.5505      7.7591     11.4247
H      6.4452      4.7060      7.0226
C     15.4698      6.2832     15.9453
H      0.3463      8.1441      8.4832
C     -2.2008      4.4226      5.0570
C      0.2464      6.6425      5.3906
H     -7.7574      9.0712      8.2972
H      3.2489      1.8595      5.0200
C      1.2972      5.5431      4.7831
H    -10.6474     11.8619      7.7119
H      2.8824     -0.9619      1.9636
H     14.1603     10.1015     16.3557
C     -5.0368      7.2929      8.3757
C     -8.3688     13.7433      8.4921
C      6.2903      7.6617      3.2175
C     -3.3631      9.8516      5.0051
C     -0.0983      6.1445      3.0463
C     -1.3906      6.2546      3.6758
H      2.3656      3.6407     -0.3555
H      4.2365      5.6372     -1.2301
H     -2.0810      2.7346      6.4066
C    -10.5589     13.9875      9.0563
H     -1.5020     10.5391      6.5480
C      0.7079      4.8450      3.4619
C      5.3851      3.3397      2.3981
H      0.1568      4.4165      7.6979
H     -6.8130      8.9533      6.3895
C      7.1747      3.6819      9.6459
H     -2.9803     12.5146      6.6064
H     -6.4558     10.9344      6.1898
C      2.2702      6.5663      8.7547
C     -1.6088      5.3619      5.8788
C      2.7118     -0.0340      2.5595
C      1.3494      4.4971      5.7531
C      2.1650      6.4061      7.1359
C      1.3958      4.1706     -0.1453
H     -1.0976      5.2932      0.8894
H      4.1816      1.3904      2.7169
H     -1.9927      7.8524      9.2897
H      3.3701      0.4490      0.0772
H     -4.6367      6.5240      7.5257
H      9.0733      2.7732      8.8230
H      6.0159      0.8709      3.8138
C     -0.5421      9.0300      5.0390
C     -4.0701      7.3579      9.4301
H      4.3061      6.3887      0.7532
H     -3.4970      8.4595      2.6644
C     -4.6075     11.3175      7.6717
H     -2.5813      2.8318      2.7981
H     -3.4105     10.4267      3.9495
C     -0.1921      7.8709      7.5588
C      0.6435      3.4299      5.4912
O      8.3239      5.1906      4.4697
C     -1.6742      8.0670      5.5818
C     -6.5938     13.7908      7.1189
C      5.5252      1.9049      6.3509
C      3.3029      0.7911      6.3733
H     -5.4943     13.7960      7.1143
H     -8.4983     16.4246      9.1495
H      0.6311     10.3955      5.4698
H     18.4990     12.1130     18.4253
C      2.0283      4.9810      6.9395
H     -0.1507      3.8004      1.8007
C      3.8280      5.6035      4.9110
C     -9.4044     16.0206      9.1589
H     20.6595     10.2270     14.2457
H      0.3147      6.2747     -0.3824
C      8.3803      7.0634     10.7432
H    -11.2058     16.0064     10.7341
H      8.9999      5.9171     11.2546
H     11.4735      5.7918     11.8336
C      4.3477      3.0915      4.6595
C     17.4059      9.6928     18.1290
O      9.8406      5.1973     11.0566
C     -6.2970     12.4698      9.1638
C     -5.9422      9.2933      7.0785
C      5.7453      4.4414      7.6703
C     -7.0148     13.7917      8.6089
H     -0.8487      4.7110      5.7740
H     -3.8783      9.6078      0.1076
H     10.2335      5.3614      1.2476
C     14.3487     10.1124     14.0593
H     -9.9001     17.4129     10.5085
H     -1.7605      9.1239      3.5508
