263

C     19.7135      8.8924     13.8344
N     -1.5883     10.6179      1.4586
C      3.9591      1.5548      7.2108
C      2.0844      2.4415      1.8074
C      7.3954      5.0171      2.2092
H     -3.0762      6.8203      2.2665
C      7.3501      3.6097      2.9311
C      3.1401      4.0050      5.3992
C     16.0784      7.1494     19.5237
C      5.8700      1.9904      3.8508
C     -7.0032      8.3435      9.6087
C     13.8373      8.7218     13.4587
N     -0.1690      2.6959      6.2755
C      0.4350      5.8385      0.4314
O     -1.6094      2.8036      0.9209
C      3.0505      4.0436      6.9027
C     15.5904      6.0550     17.5337
C     16.1879     10.4747     16.6034
H    -11.7244     13.6778      9.3916
H     -3.4450      4.0978      5.6682
H     16.9949      6.8880     14.9740
C     16.8721      9.0194     16.2095
H     -9.1890      7.7357     10.3153
H     -6.9622      8.7594     10.6733
H      8.1463      3.7369      3.7658
H     13.1572      7.3333     10.7741
H     -1.3463      5.2339      6.6490
H      8.4568      3.0568     10.1144
C      2.8081      2.6918      7.6955
H      6.4667      1.0875      4.0107
O     14.2159     10.7102     15.0748
C     -4.9070     12.7637      8.2957
C      7.0982      5.9977      9.6836
H      2.8071     -0.0228      6.0718
H      3.0519      6.8367      9.1174
C      6.0793      3.2895      3.3631
H      6.4062      4.6575      7.4231
H     -8.3241     10.5959      9.4902
H     -8.6752      6.5944      9.1600
C     16.9713     10.9304     17.7745
C     -3.0266      8.4608      4.9937
O      1.9502      8.4803      4.8129
C     -1.5524      7.9731      6.7676
C      8.5158      8.4952     11.7909
C     20.3536      8.0174     12.7127
C      6.5767      7.0258     -0.7269
H      5.2800      4.3895      1.8444
H     17.3725     10.1146     14.3129
H      1.6133     -1.0955      3.7485
C      7.7920      2.8709      9.4729
C      7.2345      6.7568     10.8440
C      7.9641      5.9209      3.0758
H      8.4210      7.7386      1.5581
C     -1.1919      6.6814      5.0043
H     16.0100      8.2092     21.1271
H      2.4429     -0.4077      1.8701
H     15.6144      6.8840     13.7919
C     -3.2668     11.5887      6.9719
C      6.2228      4.9195      9.4591
O      5.6692      2.9320     10.7164
C     16.0280      7.4075     17.9620
C      5.0103      5.4135     -0.0181
C     17.3206      9.0847     14.9203
H     -4.2127      7.7684      5.1147
H      7.5392      7.7963      4.1230
H     -9.0530     14.0128     10.5030
H     -6.3492     12.1313      9.7987
H     17.7627     12.9913     17.1132
C     -0.1502      3.2728      8.8641
H     21.2174     10.5603     14.0517
C     13.3433      8.7188     12.2037
C      1.6386      1.7399      7.7922
H     -2.0830      7.8207      9.8295
C     -0.7707      6.2751      1.3678
C     10.0174      7.9854     12.4837
O     15.2146     10.4062     12.9185
C     -6.2988      8.6006      8.3784
C     16.7357      8.3530     20.3297
C     -9.5699     14.3674      9.5896
C      2.6736      1.5638      4.8488
H     -2.0777     11.1575      2.3384
H     -2.7058     10.2432     -0.0378
H     -7.2857     12.0603      7.2309
H     -9.2834     16.4846     10.8080
C      3.7258      3.3539      3.3172
H     -4.1909      9.4512      6.6252
C     -2.2029      8.4320      0.6600
C     11.1166      7.6107     11.5350
H     -1.8769     10.7812      5.9279
C      5.1177      2.2684      5.1581
H      4.1316      0.5317      5.4666
H     -1.5246      2.9026      0.0943
C    -10.2472     12.1657      8.5624
C     -8.2136     10.8676      8.4814
C     -2.3906      5.3031      3.6198
C     16.5281      9.3126     19.4102
C      2.2914      3.5671      2.8350
C     -8.2909      7.2331      9.9760
H     16.0305      8.6356     13.4836
H      8.1448      5.6416      5.4886
H      2.6340      5.1222     -0.9299
O      5.3565      6.5742      6.6169
C      0.4473      8.0570      4.3424
H     -8.8249     10.0656      8.0800
C     -3.0842      8.7119      3.5051
C     -2.2437      7.5380      2.7815
H     -6.4630      8.4041      7.3002
C     -2.6719      7.7707      7.4764
H      2.0483      3.9390      5.0873
H     13.5464      8.7063     10.3739
H     -0.8772      3.8124      8.5135
C      3.2109      1.5840      1.3871
C     -0.1150      8.3737      2.0160
O      7.3310      4.5033     11.6536
C     -0.5078      2.9629      1.5421
C     -0.3952      3.7587      4.2684
C     -5.6162     10.6128      7.3984
H     -3.4136      7.0328      7.4024
H     15.6350      9.5276     18.9313
H      0.3468      6.3550     -0.3360
O      0.1583      9.8045      5.6068
C     -6.8140     11.3238      7.8142
C      0.8018      7.4432      6.6507
C     15.2850      7.9425     14.0286
H     15.5500      8.4023     15.8736
C      0.4777      7.5667      3.0535
H     -3.9994     13.3691      8.9476
C      2.5054      0.5431      3.8240
C      0.1299      2.2372      7.5976
C     -2.8514     10.6179      6.1993
C     -2.5088      3.2713      5.3436
C     17.7768     12.0522     17.7873
C     -9.7798     16.5948      9.8901
C      0.5873      2.1607      1.2491
C     -1.3726      7.7325      1.6346
C     -8.9794     12.2334      8.5768
N      1.9171     -0.4457      4.3304
C      3.4481      1.4388     -0.1101
O     16.7983      6.0101     15.4331
C      9.6080      6.4091      0.2564
H     18.3794     10.6354     19.3750
H     -0.6980      1.7319      8.2360
C     -2.6209      4.8224      2.3197
C     -2.7765      7.7614      8.8644
H      7.5830      3.7718      8.5113
H      8.0652      5.0925     11.4639
H     -5.0472      9.9684      9.7491
C     -2.0538      9.8088      0.6479
H     -8.0358      6.4843     10.6749
H      1.3516      7.4469      9.5326
H     14.3732     10.2278     11.9437
H      4.3231      0.6772     -0.1355
H      1.0179      3.8113      9.0856
C     14.9293      7.4544     15.4874
H      2.4959      1.5227     -0.3530
C     13.6432      9.5193     11.1494
H      6.1888      2.1473     10.8254
H     15.2645      9.8908     17.0313
C      4.1626      8.0659      4.2878
C      7.4688      7.2005      3.0945
C     21.0054      9.6204     14.4623
C     18.5382      8.3356     14.7310
C      4.2795      5.7983      6.4388
C      1.6693      4.8053      2.5438
C      6.3825      5.9733      0.0557
C      5.4730      7.7523      4.3921
C      8.2120      6.9016      0.8455
C      4.0599      4.9893      7.5567
C      1.3330      5.1190      1.1006
H     -2.8839      5.5229      5.8097
C      6.3230      6.7397      5.5326
H     -3.0775      5.1655      1.1051
H      0.4476      1.2056      0.8124
C      7.4231      5.6784      1.0000
H     -0.7571      3.2029      3.3528
O      7.4876      7.2214      5.9952
H      8.6091      9.5512     11.8737
H     21.4359     10.2589     15.4945
H      1.4704      2.9488      3.5426
H     -0.6512      9.7426      1.9548
H      3.0973      4.5221      0.6076
H      4.7274      5.3531      4.2612
C     12.5054      7.7410     11.7371
H      5.9459      5.9680      4.9822
C     15.5091      6.0738     15.9344
H      1.9248      5.7634      9.3724
C     -1.7267      4.4635      4.6947
C      0.3450      6.8701      5.2700
H     17.7400      8.3827     20.0656
C      0.9817      5.8057      4.7889
H    -11.0767     11.3727      8.8393
H      1.1999      0.4904      2.2093
H     15.7501     10.9404     15.7112
H      0.0114      7.9794      8.5685
C     -4.8859      6.5560      8.6636
C     -8.5448     13.4998      8.4355
C      6.0005      7.7209      3.0872
C     -3.8167      9.5515      5.7103
C     -0.3463      6.2293      2.8818
C     -1.7114      6.5555      3.6590
H      4.5549      5.9486     -0.7941
H     -2.1576      3.2451      6.4250
C    -10.7454     13.7747      8.9312
C      0.3964      5.0705      3.5952
C      4.9099      3.7342      2.7136
H      1.3444      4.6306      8.0359
H     -4.3866      9.0895      8.3266
C      6.7456      3.6944     10.3428
H     -2.6814     12.2006      7.6883
C      2.0076      6.7455      8.8749
C     -1.8970      5.6438      5.7781
C      2.1695      0.5917      2.3638
C      0.8889      4.7961      5.9565
C      1.9263      6.5767      7.0529
C      2.2202      4.5758      0.0286
H     -1.6290      5.3770      1.8469
H      3.9910      1.8184      1.9263
H      3.8805      2.3475     -0.1085
H     -3.7813      5.8318      8.2204
H      7.9014      2.0124      8.9023
H      4.9407      1.7457      3.1096
C     -0.7098      9.0941      4.4539
C     -3.9915      7.3195      9.4032
H      4.5027      5.8396      0.7853
H     -3.9789      8.1903      3.0764
C     -4.5374     11.6103      7.4645
H     -2.5404      3.7301      2.5382
H     -4.5770      9.7134      4.9431
H     -7.1850     14.4796      9.3993
C     -0.2161      7.9408      7.4254
C      0.3785      3.6958      5.5647
O      8.6605      5.7018      4.4556
C     -1.6761      8.2136      5.3543
C     -6.4742     14.1993      7.0963
C      5.3009      1.9086      6.3896
C      3.3395      0.7727      6.0797
H      8.2587      6.8293      6.3807
H     -5.6838     15.0221      7.3737
H      5.3968      3.2343      8.5485
H      0.9899      9.1183      5.8714
H     18.8563     11.6945     17.8866
C      1.8132      4.8909      7.0641
H     -0.3412      3.7702      2.0014
C      3.8204      5.2358      5.0160
C     -9.6861     15.6696      9.0902
H     22.1072      9.1872     14.0909
C      8.3862      7.6400     10.5955
H      3.7149      5.6470      8.2967
H     10.9218      6.4336     11.1990
H     -6.6145     13.3371      6.6281
C      3.6669      2.7864      4.6647
C     17.4699     10.0941     18.8530
C     -6.3221     12.6971      8.7045
C     -5.2163      9.5620      8.6298
C      5.5462      4.4202      8.1412
C     -7.0979     13.8692      8.5550
H      2.0735      3.4787     -0.2555
H     19.3107      9.7520     13.2232
H      9.7344      5.5954     -0.5639
H     -0.8210      2.0957      5.7476
C     14.4215     10.1840     13.8508
H    -10.4595     17.6376      9.9588
H     -2.8381      9.9304      3.2990
