267

C     19.9094      9.2647     14.0158
N     -1.3872     10.4790      1.2606
C      4.2082      1.5066      7.2854
C      2.2304      2.7421      1.6315
C      7.4496      4.8736      2.1250
C      7.2830      3.5762      2.8716
C      3.2988      3.7233      5.6503
C     15.9056      6.9902     19.6903
C      5.8798      1.6367      3.9824
C     -7.7702      8.2500      9.7016
C     13.7442      8.5622     13.8194
N     -0.6428      2.7222      6.6661
C      0.5820      6.0849      0.6186
O     -1.6008      2.8690      1.2725
C      3.2024      3.8684      7.1361
C     15.4738      6.1740     17.3747
C     16.2954     10.3004     16.3967
H      1.2468      0.8992      9.5200
H     -3.8986      3.4676      5.3768
H     17.6521      6.1136     15.2102
C     16.9070      8.8513     15.9354
H     -9.2678      7.2941     10.7939
H     -7.9035      9.0138     10.2766
H      8.1466      2.9690      2.7745
H     12.6646      7.3583     10.5866
H     -1.1799      5.6040      6.6881
H      8.8620      3.2380     10.6759
C      2.6516      2.8200      7.9509
H      6.8399      0.8715      3.8143
O     14.0725     10.9629     14.8205
C     -4.7070     12.6098      8.4610
C      6.9464      6.1244      9.5931
H      2.4914      0.3311      6.7251
H      2.2959      6.1568      9.1747
C      6.1127      2.9452      3.0530
H      6.6542      4.2366      7.0928
H     -8.2857     11.1099      9.6389
H     -8.3726      6.3955      9.2696
C     17.1507     10.8704     17.6077
C     -2.9825      8.2427      4.9142
O      1.8827      8.4634      4.7750
C     -1.2405      8.4353      7.1022
C      8.8982      8.2556     12.1019
C     20.5507      7.8505     13.0429
C      6.5409      7.3087     -0.8361
H      5.0361      3.7143      1.5196
H     17.7237      9.9990     14.1391
H      1.6040     -1.1674      3.9100
H     -4.9737      6.2994      7.8328
C      8.2497      3.0042      9.8267
C      7.4861      6.8216     10.8818
C      7.9380      5.8638      3.2153
H      8.4020      7.6856      2.1385
C     -1.1683      6.8816      5.0316
H     15.7160      8.8727     20.6549
H      2.4014     -0.2859      1.9615
H     15.4481      6.9948     13.3775
C     -3.5276     11.4546      6.7511
C      6.2010      4.8967      9.5064
O      5.6807      3.0328     10.6540
C     15.7585      7.3505     18.0195
C      4.6698      5.4710     -0.4341
C     17.6979      9.0279     14.7036
H     -3.7622      7.3366      5.4547
H      7.8337      7.4742      4.2124
H      3.8916      1.4439     10.6785
H     -6.0331     12.0663      9.7357
H     17.4859     12.6117     16.2934
C      0.0016      3.6579      9.0609
C     13.2434      8.5120     12.4734
C      1.4274      2.1277      7.6793
H     -1.7909      7.4124      9.5403
C     -0.5998      6.3551      1.3995
H     -2.8089      2.6090      4.7411
C      9.9351      7.3371     12.6928
O     15.3151     10.5310     13.0661
C     -6.7360      8.0054      8.7687
C     16.5738      8.2448     20.3756
C      3.2314      1.5514      9.7065
C      2.9140      1.5650      4.9661
H     -1.8728     11.3313      1.0789
H     -2.7657     10.0373     -0.3000
H     -7.1899     11.9514      6.8689
H      3.5286      3.7389     11.3206
C      3.8080      3.3288      3.2760
H     -4.7472      9.4653      5.8153
C     -2.1370      8.3163      0.6230
C     11.0817      6.8515     11.8136
H     -1.9955      9.9938      6.8331
C      5.2456      2.2031      5.1921
H      3.5418     -0.5006      5.7108
C      2.4208     -0.4941      8.4314
C     -8.4263     11.2172      8.3509
C     -2.0535      5.3034      3.5853
C     16.6859      9.3058     19.2951
C      2.4913      3.6291      2.7794
C     -8.3956      7.1146     10.2313
H     15.8624      8.6088     14.0376
H      8.4411      4.9058      2.1411
H      2.5421      5.4358     -0.3968
O      5.4163      7.0729      6.5175
C      0.6218      8.0658      4.4022
H     -8.5889     10.4542      7.6516
C     -3.0188      8.3404      3.4020
C     -1.9252      7.7723      2.8913
H     -7.0731      7.1152      8.4259
C     -2.5065      8.2931      7.7997
H      2.1435      3.9720      5.4206
H     13.6516      9.2069     10.2219
H      4.1786      3.8235      0.5752
H      0.2584      4.4592      8.5455
C      3.1224      1.6067      1.5614
C     -0.0290      8.3841      2.1213
O      4.9060      3.9130     -0.1919
O      7.3509      4.5304     11.7810
C     -0.3225      3.1858      1.4533
C     -0.6331      3.7607      4.3392
C     -5.6170     10.4419      7.3347
H     -3.1535      9.1854      7.6554
H     15.8261      9.8229     19.4382
H      0.1355      6.2309     -0.2931
O      0.3349      9.9457      5.6215
C     -6.8653     11.4156      7.9442
C      0.6186      7.3141      6.6490
C     15.1370      7.8100     14.0461
H     15.6858      8.4806     15.7671
C      0.6535      7.5344      2.8825
H     -3.6534     12.6146      8.7117
C      2.7716      0.6102      3.8590
C      0.0327      2.6007      7.8719
C     -2.6984     10.4195      6.1567
C     -2.7228      3.4935      5.4574
C     17.7049     12.0774     17.2045
C      3.1825      3.9322     10.2165
C      0.8695      2.5427      1.1617
C     -1.2754      7.8789      1.6138
C      3.8332     -0.5015      8.2424
N      2.2716     -0.4349      4.3905
C      3.7087      1.3316      0.1923
O     16.8063      5.5551     14.8113
C      9.2362      6.2400      0.2960
H     18.5736      9.1164     18.5408
H     -0.7370      1.8597      8.6425
C     -2.6182      5.0546      2.4503
C     -2.6028      7.6234      8.9856
H      8.4852      3.7350      8.9587
H      1.5648      1.4507      6.6281
H     -5.2074      9.7769      9.3806
C     -2.1622      9.6825      0.4569
H      5.2836      4.7744     10.3943
H      2.3138      7.8258      8.7329
H     -0.8483      9.6147      4.1863
H     14.8836      9.2769     11.6600
H      3.1694      0.3493     -0.0393
H      0.9092      3.5177      9.4415
C     15.0343      7.3644     15.5398
H      3.2999      1.6806     -0.5993
H     -1.6204     10.4694      2.1259
C     13.9279      9.0485     11.4388
H      5.5398      2.8218     11.6422
H     15.3150     10.5645     16.4861
C      4.2198      8.0816      4.1897
C      7.7341      7.6121      3.1676
C     20.8894      9.9839     14.7273
C     18.8937      8.4502     14.7440
C      4.1037      5.9817      6.5037
C      1.7215      4.8187      2.5547
C      5.9191      6.1047      0.0503
C      5.4920      7.5298      4.1220
C      8.0651      6.5738      0.6594
C      4.3028      4.8155      7.6185
C      1.4915      5.2867      0.9884
H     -2.5627      6.0956      6.6507
C      6.1566      6.9186      5.0676
H      9.7257      5.2276      0.0777
H      1.4893      2.6595      0.0747
C      6.9215      5.7527      1.0379
H     -1.2785      2.8710      3.7929
O      7.4500      7.0638      5.7152
H      9.2849      9.3611     11.7841
H     20.2945     11.1050     14.4889
H     -0.5023      9.1925      2.9347
H      2.4495      3.5907      0.3801
H      4.7881      4.8992      4.6253
C     12.1671      7.7632     11.6066
H      6.1919      5.7120      5.0540
C     15.6581      6.0808     15.8879
H      0.9525      6.8953      9.1781
C     -1.9728      4.6680      4.7925
C      0.3096      6.9770      5.2289
H     17.2870      8.1691     21.3806
H      2.0394      2.0765      4.9213
C      0.9451      5.5548      4.7395
H      1.7061     -1.0216      9.2583
H      1.1335      0.9883      2.3988
H     16.7324     10.6704     15.3327
H     -0.0511      7.2749      8.6223
C     -4.8565      6.3426      8.8709
C      4.4305      0.8319      8.5025
C      6.3334      7.7044      2.8855
C     -3.7054      9.5381      5.4243
C     -0.1643      6.1888      2.8222
C     -1.3177      6.5662      3.6602
H     -2.1749      3.0125      6.2166
C      2.0476      0.8923      8.8743
C      0.4374      4.9581      3.4106
C      4.9075      3.4195      2.5942
H      1.5734      4.5026      8.0192
H     -4.5828      8.9091      8.0318
C      6.8895      3.7836     10.4893
H     -2.4386     12.0563      6.7973
H     -5.9715      9.9451      6.5117
C      1.8078      6.8958      8.6386
C     -1.6646      5.7817      5.8283
C      2.2609      0.5793      2.4571
C      0.8704      4.6061      5.8556
C      1.7563      6.5054      7.2278
C      1.9320      4.5187     -0.1988
H     -1.3459      5.4033      1.1767
H      3.8668      1.5379      2.4035
H      4.7781      0.9419      0.5922
H     -4.1180      5.5527      9.1986
H      8.1343      1.9892      9.5515
H     -2.1290     10.6873      5.2797
H      5.1680      0.9811      3.2648
C     -0.4414      8.9817      4.9134
C     -3.8451      7.2845      9.4082
H      3.9031      6.0501      0.5838
H     20.2574      9.9938     15.8208
C     -4.5514     11.4657      7.6429
H     -3.4221      4.2516      2.6831
H     -4.4400     10.0410      4.6744
H     -6.5525     14.6299      9.2860
C     -0.1692      7.9194      7.6869
C     -0.0128      3.5145      5.7128
O      8.4231      5.4002      4.1684
C     -1.5283      8.2991      5.6140
C     -6.3758     14.3872      7.2294
C      5.4125      1.9479      6.5732
C      3.4438      0.7230      6.1518
H      7.5162      7.8707      6.1357
H     -5.6875     15.2067      7.3818
H      5.4330      3.1535      8.2482
H      1.0857     10.1743      5.2318
C      1.5155      5.1521      7.1974
H     -0.1417      3.5435      2.4650
C      3.7887      5.0635      5.2381
C      3.2781      2.9544      9.2721
H     22.1009     10.0549     14.8007
C      8.5153      7.6249     10.6804
H      3.7865      5.2321      8.4771
H     10.7157      6.4700     10.8333
H     -5.7999     13.3762      6.8732
C      3.9070      2.6982      4.7232
C     17.6596      9.7886     18.4790
C     -6.2000     12.5540      8.8296
C     -5.5407      9.4816      8.3869
C      5.7378      4.3747      7.9721
C     -6.9186     14.0099      8.5918
H     -0.8135      3.5265      9.7263
H      1.3005      4.2270     -0.9514
H     19.5120      9.8924     13.1821
H      8.1276      5.9127     11.2468
H     -1.0809      1.6564      6.1299
C     14.3984     10.0694     14.0036
H      2.9273      4.9143      9.7995
H     -3.4689      9.1926      2.9526
