269

C     19.7819      8.6846     13.5737
N     -3.2971     10.7113      1.7409
C      3.7529      1.5382      7.2946
C      2.2433      2.5004      2.4285
C      7.2485      4.4858      1.9541
H     -3.2057      7.0125      2.5808
C      7.7437      3.0143      2.1846
C      3.3598      3.7518      5.3049
C     16.1125      7.2615     19.3365
C      6.4411      1.8599      4.4009
C     -7.0920      8.1449      9.0800
C     13.5717      8.8063     13.9326
N     -0.0310      2.5339      6.4658
C      0.7486      6.3728      0.8137
O     -1.3306      2.5653      1.2339
C      3.2799      3.8139      6.7658
H     12.9921      7.4448     11.0606
C     15.5965      6.2405     17.4048
C     16.5620     10.1988     15.8755
H    -11.4315     14.4698     10.2289
H     -2.0220      2.8412      5.4791
H     17.5674      5.7964     15.2904
C     17.0283      8.7590     15.8492
H     -8.4502      6.8433     10.3022
H     -6.4414      8.0258     10.0023
H    -10.7631     15.9404     10.9479
H     -2.8793      6.2889      6.8869
H     -6.9731     14.6386      9.2996
H      8.5179      4.2028     11.1367
C      3.0538      2.7387      7.7326
H      7.2781      2.0202      4.9790
O     14.2819     10.4768     15.6468
C     -5.0353     12.1619      9.1617
C      6.3183      5.5106      9.3692
H      3.2359     -0.3829      6.5619
H      3.3863      5.2281      8.4385
C      6.3966      2.5074      2.9329
H     -9.0366     12.0055     10.1430
H      2.9542      7.9683      9.2444
C     17.3564     10.7161     17.0689
C     -2.6257      8.8023      5.2901
O      2.0046      8.6377      4.7333
C     -1.1566      8.5806      7.2195
C      8.7292      8.0000     11.5052
C     20.5332      7.5507     12.5232
C      6.4441      6.7459     -1.0181
H      5.3860      3.0391      1.1775
H     17.6342      9.5702     14.3025
H      2.1869     -1.0409      5.5078
H     -5.7045      6.4741      7.8613
C      8.1330      2.9175      8.5606
H      0.4465      1.1182      1.4596
C      7.2640      6.3264     10.4623
C      7.9293      5.3726      2.9303
H      8.2796      7.1595      1.6795
C     -1.1232      7.0221      5.4479
H     16.5118      8.5619     20.9961
H     16.8966     11.0254     14.8374
H      2.5046      5.4063      0.6299
C     -3.3420     11.5028      7.4665
C      6.2109      4.2532      9.1060
C     16.0568      7.6098     17.8555
C      4.6217      5.4643     -0.3238
C     17.7836      8.5753     14.6732
H     -3.3349      7.8968      5.5244
H      8.3758      6.9425      4.0863
H     -1.2943      1.6816      1.5026
H     18.5056     11.7676     18.1884
C     -0.1861      3.6409      8.4121
H     19.4538      9.9703     15.2415
C     13.3765      8.9323     12.3010
C      1.6533      2.1174      8.1161
H     11.1416      6.5822     10.9840
C     -0.6387      6.3345      1.6200
H      5.6183      7.3088     -1.8253
H     19.3509      9.0793     12.6514
C      9.9972      7.6321     12.5383
O     15.6067     10.0099     13.8923
C     -6.2149      8.5206      7.8886
C     16.8000      8.3832     19.9586
C     -9.5705     14.3767      9.5333
C      2.6865      1.0144      4.8554
H     -2.4669     10.9726      2.2259
H     -4.0198     11.3490      1.4477
H     -6.5801     12.8904      6.4312
H      2.8844      5.8963      9.0565
C      4.1620      3.5593      3.1160
C     -2.3747      8.4504      0.7777
C     11.2584      7.0549     12.0013
H     -1.9344     11.8100      5.6343
C      5.2583      2.0569      5.1155
H     17.9674     13.0233     17.0059
C    -10.7469     12.4243      8.6586
C     -8.3144     11.0384      8.2362
C     -2.0923      5.1215      3.9303
C     16.6047      9.6793     19.0205
C      2.7886      3.6191      2.9749
C     -7.6776      6.7387      9.1638
H    -11.0415     11.9675      9.5324
H     15.2887      7.6449     13.1870
H      9.2880      4.1607      3.5592
H      0.3538      3.3567      0.3080
O      5.3792      6.4642      6.2577
C      0.7706      8.0529      4.5481
H     -8.6953      9.9305      8.2212
C     -2.8683      8.7664      3.7817
C     -2.2936      7.3423      3.0366
H     -4.7487      9.9319      8.2747
C     -2.4773      8.7218      7.6862
H      2.3113      3.5197      4.7485
H      4.5346      4.5590      1.3106
H      0.2601      4.2980      9.3071
C      3.0226      1.3906      2.0561
C     -0.2356      8.4649      2.0771
O      4.1831      4.3667      0.4145
O      7.7644      3.7960     10.6704
C     -0.1647      3.1593      1.7634
C      0.3531      3.7124      4.2018
C     -6.0378     10.7164      7.2332
H     16.0450     10.5136     19.2430
H     -0.3569     10.0741      4.0904
H     12.2487      8.6725     10.6611
O      0.5499     10.3670      5.7200
C     -6.9264     11.0791      8.3114
C      0.8402      7.4769      6.9057
C     14.4914      7.4938     13.8896
H     15.3964      8.0757     15.9700
C      0.5777      7.7127      3.1222
H     -4.7231     13.0735      8.7373
C      2.5112     -0.1771      3.8799
C      0.3250      2.6590      7.7549
C     -2.8045     11.1422      6.1987
C     -1.9367      3.6135      6.1133
C     17.8088     12.0337     17.7370
C    -10.1933     16.4914     10.3239
C      0.8207      2.3138      1.9432
C     -1.5022      7.6507      1.5530
C     -9.1962     12.1017      8.8179
N      2.0731     -1.3238      4.5029
H      8.1562      2.5232      1.3237
C      3.3364      1.4836      0.2289
O     16.9286      6.4220     15.0210
C      9.3595      6.0308      0.1203
H     -7.2523      9.1591      6.2550
C     -2.2870      4.0730      2.9891
C     -3.0159      8.3986      9.1152
H      7.7973      3.2026      7.6930
H      1.6760      0.9541      6.6070
H     -5.2994      9.2409      6.1049
C     -3.2383      9.4847      1.0601
H     -7.9295      6.4616      8.0043
H      1.5848      7.3710      9.2132
H     -1.0621      9.3449      2.5352
H     13.7847     10.2329     10.6879
H      2.9856      0.4575     -0.1701
H     -0.9657      4.5749      8.0396
C     14.7920      7.3194     15.6530
H      3.2055      2.7870     -0.1156
C     14.0474      9.9362     11.6912
H      7.6924      5.3568     10.8913
H      2.3130     -2.1978      4.3775
C      4.2502      8.1722      4.1815
C      7.7396      6.8797      2.8515
C     20.2730      9.6512     14.6091
C     18.9235      7.8686     14.3891
C      3.9689      6.0275      6.2970
C      1.9436      4.8732      2.4737
C      6.1380      5.6221     -0.1684
C      5.4844      7.1690      3.7449
C      8.1683      6.3239      0.3003
H     14.8961     10.2994     12.2566
C      4.0846      4.9458      7.5562
C      1.5453      5.1218      1.0707
H     -3.4163      8.8473      7.1514
C      6.3178      7.3490      5.2115
H      2.2991      1.9970      4.8439
H     -2.8226      4.0480      1.8754
C      7.0199      5.2886      0.7811
H     -0.5297      3.5573      3.8925
O      7.4910      7.6180      5.3073
H      8.6165      8.9935     11.1665
H     20.7742      9.0929     15.3618
H      0.7692      2.6740      4.0599
H      1.2265      4.4723     -1.0591
H      4.8148      5.3651      4.2674
C     12.3842      8.1807     11.7024
H      6.3817      4.8219      6.9663
C     15.5958      6.0747     15.7987
C     -1.8055      4.8484      5.4949
C      0.4164      7.0550      5.5902
H     -7.9260      8.8172      9.3560
H      3.7193      1.2217      4.3213
C      1.2352      5.7589      4.9854
H    -11.3966     12.0495      7.6810
H      2.9615     -1.0351      1.8156
H     14.0007      9.4390     16.1442
H     -2.4015      8.2345      9.8577
C     -5.2540      7.4524      7.5618
C     -8.6322     13.6805      8.5541
C      6.3478      7.1769      2.7083
C     -3.4930     10.3233      5.2444
C     -0.2986      6.4375      3.1186
C     -1.5554      6.5470      4.0083
H      2.2190      3.5992     -0.1737
H      4.5092      4.8602     -1.2207
H     -2.5978      3.4677      7.1999
C    -10.9367     14.0777      9.0865
H     -1.7054     10.7517      6.4149
C      0.7347      5.1015      3.6454
C      5.3225      3.0447      2.2740
H      2.1172      5.0195      8.4964
H     17.7301      8.1489     19.9320
C      7.3671      3.5233      9.3618
H     -2.7005     11.8626      8.4409
H     -5.9992     11.0279      6.1406
C      2.5578      7.0039      8.7310
C     -1.8613      5.9762      6.3083
C      2.7306     -0.1050      2.5438
C      1.0023      4.7570      6.4569
C      2.0547      6.6739      7.1266
C      1.2935      3.9997     -0.0511
H     -1.3327      5.3866      1.4651
H      4.2546      1.1995      2.1579
H     -3.2130      9.5380      9.2881
H      4.4153      1.4723      0.0977
H     -4.3947      7.5441      6.8856
H      9.4499      3.1246      8.9846
H     -3.1569     10.8340      4.3845
H      6.8506      0.9091      3.7548
C     -0.2122      9.2615      4.7625
C     -4.3202      7.6225      8.9318
H     -3.7893      9.1295      3.3663
C     -4.7803     11.1392      7.8675
H     -2.3870      3.0921      3.3546
H     -4.7743     10.4765      5.6674
C     -0.0428      7.8167      7.6942
C      0.5615      3.4779      5.7390
O      8.5597      4.9964      3.9639
C     -1.2418      8.6673      5.6925
C     -6.8027     13.9280      7.0621
C      5.0564      1.8247      6.4750
C      2.8620      0.7243      6.5052
H     -5.8620     14.2657      6.7885
H     -8.3460     16.1092      9.4302
H     -4.2907     11.9066      9.7915
H      1.3710      9.6492      6.0528
H     16.9682     12.4744     18.3896
H      0.1988      8.0383      8.9887
C      1.8200      5.2542      7.4460
H     -0.5325      4.1278      2.4839
C      3.7616      5.2477      4.8893
C     -9.4958     15.8619      9.2219
H     20.5538     10.5881     14.2367
H      0.7446      5.8594     -0.2388
C      8.3007      7.2756     10.0878
H     -9.4604     17.0294     10.9802
H     11.3445      6.1886     12.7294
C      4.3742      2.9428      4.4032
C     17.4929      9.6376     17.9149
C     -6.6624     12.2716      9.1726
C     -6.2649      9.3489      6.7544
C      5.4776      4.2536      7.5366
C     -7.0725     13.7280      8.4694
H     -0.9969      5.9188      7.2424
H     -6.8643     12.0155     10.3637
H     10.3417      5.3446      0.5412
C     14.5297      9.6843     14.3563
H    -10.7912     17.4260     10.3210
H     -2.2057      9.4945      3.5100
