278

C     19.8449      8.8192     13.7989
N     10.4732     -2.1209      1.5929
C      3.8352      1.3045      7.3240
C      2.0879      2.2159      3.0054
H      1.0463      0.8530      9.6285
C      7.2545      5.0924      2.6554
H      9.8561     -6.0273      2.4508
C      7.2423      3.5760      2.8048
C      3.2671      4.1410      5.6504
C     19.0509     10.7746     11.7436
C     16.2179      7.3367     19.5698
C      5.8149      2.2264      4.1258
C      6.3964     -3.1371      9.1583
C     14.0949      8.6124     13.7419
N      0.6359      2.5341      6.0560
C     13.7866     -6.8020      0.7774
O     -1.1334      2.5227      1.2970
C      3.3835      4.3552      7.1483
H     13.3287      6.7367     11.3713
C     15.6275      6.4410     17.3748
C     17.1007     10.6456     15.9732
H     -2.7807      2.8676      6.2393
H      4.5280      6.0667      0.4807
C     16.7381      9.1087     15.9246
H      5.0188      7.1796      8.9412
H     19.6427     11.3945     10.9956
H      4.5937      5.7936      8.4432
H     -0.7066      5.0079      6.6790
H      5.8410      1.1205      9.6245
C      3.2013      3.0755      7.8963
H      6.8016      2.3016      4.6806
O     14.6171     10.1259     15.3099
C      7.7042     -0.7206      8.9618
C      6.4288      5.9448      9.9125
H      2.1003     -0.0697      8.8209
H     15.4969     -6.9235      9.1063
C      5.8765      3.5500      3.4149
H      5.4025      3.3250      7.3974
H     18.2440     11.1456     12.1678
H      4.5769     -1.3747      9.4375
H     15.6466     -5.3432      9.2141
C     17.7998     10.7751     17.3204
C     10.1130     -4.0892      5.0831
O     15.0395     -4.1734      4.9843
C     11.5141     -4.5453      7.0011
C      8.7780      8.0424     12.0816
C     20.5061      7.6486     13.0664
C      6.6974      6.8051     -0.5707
H      4.8516      4.7187      1.7022
H     17.4629      9.1579     13.7537
H      0.7035     -1.7569      3.6894
H      7.3538     -6.0636      9.5250
C      7.9756      2.6791      8.8144
C      7.4384      6.2038     11.1175
C      7.9614      5.7379      3.5158
H      8.2176      7.1705      2.2793
C     -1.1745      6.9104      4.9767
H     15.9807      8.6765     21.1728
H     17.0665     11.7818     15.3102
H     16.7399      5.7557     15.6411
H      3.1671      4.6679     11.1481
H     15.7379     -7.4066      0.5589
C      9.7686     -1.4571      7.6370
C      6.3899      4.6969      9.1427
C     15.9804      7.8222     18.0176
C      5.5791      4.4765     -0.2434
C     17.5463      8.5616     14.7861
H      9.6107     -4.8783      5.5888
H      8.7311      7.7999      3.7772
H      3.7295      0.5612     10.4461
H      7.1639     -2.6226      9.7830
H     19.2896     11.7949     18.4995
C     -0.4420      3.4252      7.8365
H     20.7194     10.7118     14.3972
C     13.4183      8.5892     12.0537
C      1.9024      2.1982      8.1195
H     10.6958      6.3761     10.7478
H     11.4512     -3.1163     -1.8313
C     12.4117     -6.5981      1.4652
H      5.7135      7.2453     -0.9039
H     -2.0170      2.6473      4.8940
H      7.6055      6.2824      6.4955
C     10.1061      7.5819     12.4076
O     16.1385      9.9990     13.6207
C      7.1838     -4.0945      8.1686
C     16.7497      8.5193     20.3334
C      3.3872      1.0570      9.5523
C      2.4976      0.6961      5.1814
H     22.0758      9.4439     13.5162
H     11.2133     -1.3926      1.6258
H      6.9863      0.4395      6.6922
H     -2.4945      5.6866      6.4795
H      4.3670      6.3002     10.6694
C      3.7471      4.0136      3.3814
C     10.8337     -4.4729      0.4067
C     11.2562      6.8578     11.5236
H      8.9860      2.4219      9.3844
C      4.7270      2.2731      5.1929
H      2.3254     -1.9875      9.4056
H     17.9013     12.8959     17.2780
C      2.5937     -1.0615      8.8204
C      4.6568     -1.8622      7.2993
C     -2.0472      5.2038      3.5214
C     16.8575      9.8863     19.5184
C      2.4714      3.7310      2.9599
C      5.0699      6.8313     10.0078
H      1.9472     -1.3902      8.0842
H     15.4059      7.0354     13.2101
H      8.8256      6.2232      5.3200
H     15.4798     -9.9365     -0.4072
O      5.4929      7.0607      6.4790
C     13.6387     -4.8092      4.5195
H      4.5850     -1.1274      6.5169
C     10.3176     -4.0100      3.6131
C     10.7471     -5.3635      2.7380
H      8.7161     -2.6830      8.8947
H      7.9065      2.8868      2.4724
C     10.1801     -4.4416      7.6180
H      1.6099      2.6085      3.8704
H     11.3732     -1.3027     -0.6421
H      4.6086      4.7041     -1.5636
C      3.0812      1.1515      2.4606
C     12.9155     -4.2921      1.7172
O      4.2456      4.9043     -0.4834
O      7.6365      3.7451     10.8012
C      0.0046      2.7267      2.0768
C     -0.1247      4.0431      4.1771
C      7.0153     -2.0160      7.2579
H     15.6364     10.3906     19.3940
H     12.5482     -2.7308      4.4203
H     12.4722      7.8543     10.1396
O     13.1108     -3.1318      6.2378
C      5.8881     -1.9633      8.1923
C     13.5540     -5.4998      6.7422
C     14.7471      7.4096     13.8621
C     13.7178     -5.0320      2.9435
H      7.9884     -0.0136      8.1405
C      2.2634     -0.3624      4.2289
C      0.5872      2.7129      7.3941
C     10.4881     -2.2861      6.8046
C     -2.6303      3.3756      5.2204
C     18.3115     11.9736     17.7154
C      3.1892      4.3199     10.0161
C      0.9220      1.6936      2.2304
C     11.4723     -5.2361      1.5087
C      3.9136     -0.9264      8.4953
N      1.3812     -1.3484      4.5802
C      2.8768      1.5311      1.0680
O      5.3088      6.5176      1.0060
C      9.5827      6.6235      0.6865
H      6.4146     -3.9620      6.2253
C     -2.5284      4.3153      2.5932
C     10.1367     -5.4571      8.7738
H      8.4914      2.8105      7.9580
H      1.5421      0.8710      6.9552
H      8.3335     -3.4504      6.2784
C     11.0068     -2.8898      0.5240
H      5.3653      7.6393     10.4837
H     14.0133     -5.7404      9.1439
H     12.7248     -3.1263      1.5572
H     13.6322      9.1796     10.2952
H     13.5686      9.9288     15.0067
H      3.1557      2.7758      1.1850
H     -1.8698      3.2106      1.2581
H     -0.2533      3.8360      8.7589
C     15.2030      7.2063     15.2176
H      3.2393      0.9367      0.1660
C     14.0002      9.4033     11.1978
C     19.6725      9.6319     12.2671
H      7.6733      5.1930     11.4103
C     11.1547     -2.5259     -0.7153
H      1.3363     -1.3151      5.6690
C      4.3750      8.3648      4.5582
C      7.9315      7.3109      3.2515
C     21.1301      9.6487     14.1120
C     19.0783      8.6843     15.0574
C      4.3659      6.3568      6.3845
C      1.8886      4.9276      2.5590
C      6.3937      5.6361      0.3139
C      5.7319      7.4831      4.2576
C      8.3085      6.5982      0.8390
H     15.0501      9.6674     10.8580
C      4.6003      5.1663      7.5147
C     14.8142     -8.0172      1.0778
H      9.1332     -4.8446      7.2184
C      6.4003      7.5725      5.7062
H     -0.2343      1.9173      5.7922
H     -3.1745      3.8209      1.8497
C      7.3869      5.4764      1.2162
O      7.6208      7.1547      6.0333
H      7.6412      8.2791     10.2114
H     21.2386      9.2320     15.3037
H     13.8133    -10.0058      0.4782
H      4.7241      5.8869      4.2670
C     12.5746      7.5498     11.2332
H      6.6036      4.0371      7.2681
C     15.7589      6.1990     15.9396
C     -1.6135      4.4663      4.7839
C      0.3977      6.8213      5.3648
H      6.1417     -3.8390      9.9538
H      2.9240      2.3441      4.4243
C      1.2444      5.8025      4.7617
H      1.8976     -0.7125      2.1359
H     16.3849     11.2198     16.6839
H     10.3557     -6.5705      8.4000
C      7.3743     -5.4314      8.4036
C      4.3197      0.5347      8.4929
C      6.6660      7.8755      3.2006
C     10.0365     -2.5670      5.3192
C     12.6723     -6.6919      2.8685
C     -1.5708      6.5484      3.6060
H     10.2921     -1.3934      8.4881
H     14.0721     -8.3884     -0.7002
H     17.4857      7.4218     15.1049
H      5.9709      3.8091      0.4313
H     -3.3769      3.3617      4.3459
C      1.9453      1.3092      9.1789
H     11.6014     -2.7202      6.8644
C      0.7522      5.1681      3.4675
C      4.8200      4.1205      2.6048
H     14.2042     -8.0720      7.7295
H     17.6102      8.5092     20.9014
C      7.3916      3.8583      9.4202
H      9.4742     -1.5499      0.7994
H      6.8824     -1.1593      6.7245
C     14.9381     -6.0619      8.6229
C     -1.5373      5.4276      5.9948
C      2.6168     -0.1946      2.8352
C      1.7498      4.6612      5.5279
C     14.8893     -6.1117      7.0412
C     14.6730     -9.1595      0.1100
H     11.6348     -7.5016      1.2424
H      4.0670      1.3873      2.9348
H     10.1888     -4.5576     10.6086
H      1.7269      1.7125      0.8169
H      8.2942     -5.7704      8.1264
H      7.1946      2.2158      8.7119
H     10.9035     -1.9450      4.8282
H      5.5889      1.2610      3.5623
C     12.6162     -3.6865      5.0047
C      9.6601     -5.0791      9.9114
H      6.3084      4.3854     -1.0571
H      9.4820     -3.2217      3.2935
C      8.4580     -1.8949      8.1138
H     -2.5694      3.1465      2.9706
C     12.4606     -5.1812      7.5832
C      0.6161      3.6224      5.3164
O      8.6439      5.4104      4.6199
C     11.4831     -4.5701      5.5307
C      6.2311      1.2420      7.0991
C      5.0087      1.6710      6.5020
C      2.4541      0.9450      6.4754
H      6.9017      2.1277      6.9393
H      4.8165      3.2188      9.3118
H      8.4269     -0.5976      9.8458
H     14.2071     -3.2113      6.2560
H      3.5375      0.6409      5.0511
H     12.3286     -4.9019      8.6241
C     14.8705     -7.7393      6.9057
H      0.2083      3.8160      2.0474
C      3.8623      5.7129      5.0289
C      3.6833      3.0250      9.2900
H     13.5742     -6.6596     -0.2378
C      8.2428      7.3944     10.6542
H      2.1910      4.7150      9.7829
H     11.8033      5.8173     12.1332
C      3.6865      3.1845      4.6376
C     17.3900      9.6812     18.0564
C      6.0766     -0.6727      9.0162
C      7.2942     -3.3498      6.8867
C      5.7454      4.2621      7.7447
C      5.8516      0.6618      8.6455
H     -1.6025      3.7200      7.5831
H      5.9167     -0.9809     10.1520
H     10.2621      5.7450      0.5900
C     15.0644      9.7289     14.0751
H      3.8984      4.8926      9.6234
H     11.0571     -2.9725      3.6001
