273

C     19.9112     -4.5232      0.6038
N     -1.9864     10.6117      1.4199
C      3.8100      1.4162      6.9305
C      2.1801      2.5205      2.4699
C      7.4852      5.0357      2.1976
H      9.7364     -5.7253      3.0894
C      7.5655      3.7102      2.8251
C      3.5451      3.8878      5.4187
C     16.1541     -5.8018      6.7319
C      6.3486      2.0360      3.9197
C     -6.7960      8.4775     -4.0829
C     13.5104     -4.2875      1.0193
C     -2.5077     12.1664     -0.7996
C     -4.1378     13.6045      0.5153
N      0.2178      2.7101     -6.8195
C      0.6278      6.3096      0.7378
O     -1.4628      2.8216      1.7101
C      3.1836      4.1009      6.9896
H      0.7235      6.7288     -1.3508
H     -5.2949     13.6318      0.8481
C     15.8246     -6.6363      4.4822
C     16.5861     -2.4225      3.1880
H     10.5542     -9.9242      6.9146
H     17.8291     -6.6026      2.8891
C     16.9486     -3.8852      3.1127
H     -8.2347      7.3259     -2.6943
H      2.0713      4.2304      9.6637
H     11.7413     -7.7059      7.1705
H      5.9452      1.2749      8.9683
C      3.0792      2.7694      7.6509
H     -2.3003     11.5096     -2.8777
H      7.2139      1.6575      4.2802
O     14.0338     -2.2584      2.7165
C      7.7946     -0.7641      8.8071
C     -2.4473     11.1942     -1.8062
C     -6.7784      5.9678     -3.3026
H      3.0233     -0.2157      5.8793
H      4.1239      5.1595      8.4499
C      6.4165      3.0770      2.8565
H     -6.9971      3.5274     -6.1364
H      3.9039     -1.2714      9.3083
H      2.1941      7.9984     -4.2321
C     17.2367     -1.8627      4.2834
C     10.1160     -3.8466      5.0827
O     15.1356     -4.3053      4.5901
C     -1.4549      8.5404     -5.8199
C     -4.1925      7.9772     -1.2540
C     20.4359     -5.3987     -0.3434
C     -6.5056      7.0522     -1.0517
H      4.7941      4.4629      1.5659
H     17.7186     -3.4730      0.8777
H     -6.3584      6.3753     -4.7159
C     -5.4319      2.7511     -4.6885
C     -5.9420      6.5114     -2.2359
C      8.1002      5.9086      3.1644
H      8.4608      8.0078      2.3037
C     11.9729     -6.0283      5.3828
H     16.5152     -4.2715      8.4494
H     16.0036     -1.5748      2.4859
H     -8.2710      6.1754      0.7911
H      2.8681      5.0091      0.5197
C      9.8483     -1.5304      7.7925
C     -6.6236      4.7905     -4.1016
C     16.1484     -5.1338      5.0472
C     -3.5691     14.8204      0.4377
C     -7.9896      5.1018     -1.0169
C     17.8530     -3.8731      2.1165
H      9.2662     -4.4465      5.4555
H      8.2218      7.9069      4.0726
H      4.1595      0.7359      9.9431
H     -7.3780      9.3109     -4.2004
H     18.9292     -0.8126      4.8008
C     -0.5849      3.3951     -4.8826
H     21.8839     -3.8424      1.5219
C     13.3994     -4.0843     -0.4849
C      1.7036      2.1341      8.1509
H     -2.0491      6.5376     -2.2867
H     -1.8696      9.3038     -1.5507
C     -0.6808      6.1710      1.5714
H     11.5987    -10.0895      5.7507
C     -2.9876      7.4695     -0.5861
O     15.4780     -3.1012      0.9437
C     -5.6749      8.3341     -4.8402
C     16.8253     -4.6232      7.3438
C      3.7723      1.3243      9.1867
C      2.6013      1.3418      4.6191
H     -4.4824     11.6803     -0.7929
H     -1.0509     10.5701      1.9105
H      5.6295     -0.1216      6.6471
H      3.0677      6.7172     -3.5439
C      4.2188      3.5367      3.3541
C     -2.4476      8.1276      0.8315
C     -1.6770      6.8546     -1.2339
H     -5.1097      1.8438     -4.3017
C      5.3639      2.3595      5.0912
H      1.4794     -1.3635      8.6816
H     17.6844     -0.1233      3.6652
C      2.2036     -0.4714      8.4760
C      4.5688     -2.0480      7.4904
C     10.8295     -7.7040      3.8896
C     16.7689     -3.0342      6.6047
C      2.6506      3.7095      3.0520
C     -7.6584      7.1372     -3.6250
H      1.7808     -0.5368      7.2082
H     15.3464     -5.8932      0.4430
H     -1.9476     13.3760     -0.7658
H      0.7790      3.4700      0.4861
O      5.7227      6.6507      6.7259
C     13.7233     -4.8888      4.6760
H      5.3667     -1.6927      6.5067
C     10.5533     -3.9700      3.7505
C     10.7391     -5.2796      3.2348
H      8.0410     -2.4328      9.0988
H      8.2910      3.3016      3.5074
C     -2.5969      8.0538     -5.1989
H     -3.8252     15.6522      1.2439
H      2.6922      4.0005      4.8855
H     -0.4964     10.2739     -1.0240
H     -9.4422      4.0287     -0.8567
C      3.2463      1.5763      1.9610
C     12.7163     -4.4227      2.2538
O     -8.5517      4.0726     -0.4027
O     -5.3721      3.6600     -2.4069
C     -0.2211      2.9349      2.1075
C      0.1122      3.9571     -8.7760
C     -5.7642     10.4582     -5.6317
H     15.6973     -2.9182      6.3335
H     -0.1316      9.8364     -8.6316
H     -0.3237      7.8242     -2.3697
O      0.6299      9.9410     -6.8190
C      5.9182     -2.2123      8.1073
C      0.6933      7.1157     -5.9909
C     14.4219     -5.5530      1.0325
C     13.5470     -5.2848      3.2108
H      7.9829      0.3375      8.2621
C      2.5785      0.1101      3.7762
C      0.6010      2.6216     -5.4428
C     10.5974     -1.8851      6.8078
C     10.7877     -9.5383      5.7994
C     17.7370     -0.4738      4.5212
C      3.2231      3.8587      9.8830
C      0.7000      1.9137      2.2521
C     -1.5406      7.7064      1.8362
C      3.5464     -0.9672      8.3644
C      3.5032      1.6312      0.4922
O     17.0363     -6.7402      2.2260
C     -3.6274      6.2655      0.2792
H     18.5825     -2.7091      5.6648
C     10.1807     -8.2733      2.9533
C     -2.9974      8.2373     -3.8951
H     -4.4933      3.3851     -5.1416
H      1.3878      0.8883      6.4174
H     -4.3137      3.4109     -2.2415
H     -3.9337      9.1224     -5.8755
C     -2.3617      9.5751      0.3887
H     -8.2950      6.6717     -4.3912
H     12.6393     -3.5761      2.8786
H     14.4805     -3.6816     -2.2604
H      3.0552      0.6889      0.0276
H     -0.9737      3.4364     -3.9141
C     14.9483     -5.5738      2.5816
H      3.1017      2.0184     -0.4681
C     13.8946     -3.3722     -1.3823
H     -5.2314      5.5261     -2.0133
C     -1.5220     10.0570     -0.8807
C      4.5113      8.4900      4.5666
C      7.9104      7.3813      3.0660
C     20.8679     -3.3569      1.0303
C     18.8903     -4.9504      1.7974
C      4.3960      6.2090      6.3144
C      2.0674      5.0596      2.6363
C     -7.1864      5.9447      0.1020
C      5.8902      8.0415      4.3814
C     -4.9772      6.3436      0.2609
C      4.5180      4.9866      7.4697
C      1.7903      5.2634      0.9284
H     -3.3051      7.1440     -5.9028
C      6.6037      7.4243      5.5011
H      1.8054      2.1278      4.4555
H     -2.5354     14.7378      0.6509
H      9.9118     -7.8646      2.0128
C     -5.9993      5.4725      0.9402
H     -0.8086      3.5117     -8.9471
O      7.6367      7.0248      5.6488
H     -4.1297      9.0827     -1.5879
H     21.2350     -2.9942      0.1011
H      0.5978      3.1433     -9.4414
H      1.5321      4.3488     -0.8744
H      4.8932      5.3959      4.5171
C     -0.2885      7.5374     -1.4053
H     -6.4587      4.8874     -6.3479
C     15.7826     -6.7052      3.0732
C     10.8167     -8.1229      5.4467
C     13.5872     -6.0532      5.4882
H      3.6008      1.6932      4.4719
C      1.3418      5.8310     -8.1207
H      2.1967     -0.6485      1.8445
H     13.4001     -1.9134      2.1304
H     -2.0655      8.1153     -3.3006
C     -5.0597      6.8049     -4.6991
C      4.2260      0.4037      8.0326
C      6.5542      7.8016      3.0750
C      9.9278     -2.4344      5.4977
C     -0.3418      6.1960     -9.9530
C     11.3492     -6.3650      3.9866
H     10.3267     -1.0948      8.6024
H      2.5299      3.4775      0.5544
H     -7.2709      4.3488     -1.6160
H     10.1166    -10.0695      5.1239
C      2.2893      0.8817      9.1199
H     11.6660     -1.8075      6.5210
C      0.6272      5.2663     -9.3831
C      5.0968      3.5673      2.3326
H      1.3817      4.5944     -4.7694
H     17.7888     -4.8231      7.2663
C     -5.9188      3.6919     -3.6990
H     -2.9623     10.9027      1.7893
H     -6.1915     10.9258     -6.4866
C      2.1415      6.9996     -3.9963
C     11.5209     -7.2609      6.1986
C      2.6425      0.2545      2.4625
C      1.3835      4.8698     -7.0379
C      1.7756      6.4073     -5.5780
C      1.6606      4.0620      0.2423
H     -1.0779      5.2501      1.1868
H      4.0868      1.0673      2.7817
H     -3.3479      9.2653     -3.6482
H      4.6273      1.5028      0.5879
H     -4.6872      6.7988     -5.6616
H     -5.9234      2.6502     -5.5274
H     10.2154     -2.2738      4.5117
C     -3.8924     12.5011     -0.3119
H      6.0580      1.1008      3.7624
C     -0.1535      9.2013     -7.6841
C     -4.2192      7.1467     -3.5754
H     -8.6506      5.7161     -1.7455
H      9.9190     -3.5766      3.1690
C      8.2508     -1.9292      8.1310
H      9.7660     -9.3435      3.3263
C     -0.0867      8.1925     -5.3833
C      0.3849      3.8976     -7.3555
O      8.5656      5.6538      4.2215
C     -1.2997      8.3208     -7.2531
C      6.0852      0.7930      6.7786
C      4.9371      1.5840      6.0903
C      2.5074      0.8731      6.0084
H      6.9199      1.0705      6.1762
H      5.0830      2.8569      8.2882
H      8.0660     -0.5948      9.7929
H      0.5344     10.7266     -6.2566
H     17.2986     -0.0578      5.3864
H      0.2841      8.4280     -4.3373
C      1.9644      4.8557     -5.7951
H     -0.0944      3.8187      1.7116
C      4.0129      5.4882      5.1248
C      3.9191      2.8105      8.8314
H     20.3058     -2.4986      1.4231
H      0.5279      5.8787     -0.1124
C     -4.7069      7.1862     -2.3477
H      2.9102      3.2388     10.7839
H     -1.7186      5.8438     -0.6510
C      4.4357      3.1728      4.5244
C     17.5434     -2.9166      5.2183
C      6.1088     -0.8932      8.9386
C     -4.9797      9.2021     -5.7065
C     -7.1037      4.6249     -5.5657
C      5.7699      0.5747      8.1402
H     -0.2617      4.4640     -5.1090
H     -3.2986      9.8929      0.2064
H     -2.5947      5.8833      0.3953
C     14.3960     -3.1885      1.3688
H      3.8961      4.6019     10.0762
H     11.1610     -3.0366      3.1775
