279

C      6.8859      8.6526      0.4849
N     11.0370     -2.4125      1.1612
C     -9.0235      1.2876      6.7895
C     15.0898    -10.5647      2.1431
H      1.6189      0.8673     10.0889
C     -5.4921      5.0319      2.0633
H      9.8425     -5.7935      3.3821
C     -5.3093      3.6856      2.5618
C     -9.6626      4.0731      5.3099
C      3.2878      7.3063      6.5341
C     -6.4359      2.0566      4.2046
C      6.0857     -4.5469      8.8863
C      0.5935      8.6535      0.9564
C     10.2470     -0.6988     -0.5753
C      8.5625      0.6598      0.5163
N      0.1358      2.6192      6.2477
C     13.5055     -6.7420      0.8978
O     11.6157    -10.1407      1.7443
C     -9.7447      4.1852      6.8548
H      1.1268      7.5465     11.2265
H      7.4326      0.4804      0.6717
C      2.7931      6.4027      4.4827
C      3.8540     10.4082      3.4702
H     -2.6219      2.8917      6.8616
H      4.4745      5.7061      2.9392
C      4.1876      9.1346      3.1639
H      4.2338     -5.7509     10.0300
H     -1.2192      5.1712      7.1776
H      5.7227      1.5416      9.1125
C     -9.7952      2.6756      7.2878
H     11.4224     -1.2580     -2.3440
H     -5.4348      2.4978      4.2046
O      1.2231     10.4507      2.6458
C      7.7052     -0.5222      8.9606
C     10.2862     -1.6055     -1.8264
C     -6.8581      5.9669      9.5622
H     15.7252    -13.1856      6.2980
H     -8.7988      5.2264      8.4769
C     -6.5369      3.0521      3.0286
H     -7.3322      3.4539      6.9741
H      3.9248     -1.3646      9.5157
H      1.9060      8.2284      8.8492
C      4.6570     11.0896      4.2288
C     10.1222     -3.9758      5.3133
O      2.1969      8.6688      4.6654
C     -1.2335      8.4290      7.2654
C     -4.0395      7.6944     11.8955
C      7.4840      7.6436     -0.2708
C     -6.6562      6.9595     11.8667
H     18.4697     -8.3208      1.7961
H      4.4397      9.6812      1.3797
H     14.3965    -14.8654      4.1212
H      7.3341     -6.8123      8.2161
C     -5.4068      2.7137      8.2736
H     13.8184    -11.9623      1.6500
C     -5.8998      6.2762     10.7035
C     -4.7245      5.8925      2.8608
H     -4.3725      7.6391      2.1416
C     -0.7805      6.7421      5.4425
H      3.9299      8.5758      8.2406
H      3.2150     10.6611      2.6727
H     -7.4643      6.5473     13.9839
H     15.4545     -7.4186      0.9489
C      9.6254     -1.3425      7.7488
C     -6.8788      4.6075      8.8963
C      3.1583      7.7841      5.0679
C      9.0553      2.0328      0.4563
C     -7.8902      5.0687     11.9221
C      4.6493      8.8221      2.0499
H      9.3027     -4.4647      5.5352
H     -4.5988      7.5630      3.9898
H      4.0164      0.8237     10.1830
H      6.0074     12.7807      4.3524
C     -0.6257      3.3684      8.2059
H      8.8585      8.8055      1.4346
C      0.5789      8.9927     -0.4569
C      1.8912      1.8361      7.8302
H     -2.1275      6.9171     10.4980
H     11.5507     -3.6794     -1.5398
C     12.3774     -6.7392      1.7711
H     -7.3105      7.7659     11.1767
H     -1.5956      2.5837      5.3469
C     -2.8563      7.0730     12.4811
O      2.7262      9.9381      1.1545
C      7.1894     -4.8031      8.2230
C      4.1113      8.6730      7.1469
C      3.6229      1.3402      9.3238
C     15.5118    -11.7447      4.6192
H     12.0234     -2.1338      1.1717
H      6.2165     -0.3059      6.4896
H      2.6629      6.4258      9.3330
C     17.0438     -9.5460      3.1102
C     10.7031     -4.9550      0.6132
C     -1.5822      6.8514     11.3633
H     -5.0191      1.5779      8.3244
C     -7.6028      2.2493      5.0213
H      1.5079     -1.4990      8.9998
H      4.5901     13.0760      3.4984
C      1.9756     -0.5639      8.3931
C      4.5266     -1.8173      7.3074
C     -2.6420      5.3396      4.0995
C      3.9573     10.0469      6.4667
C     15.6005     -9.3461      2.6424
C      5.2789     -5.8339      9.2560
H      1.5771     -0.4969      7.3171
H      2.4945      7.4622     -0.0216
H     11.2893     -0.5927     -0.0574
O     -7.2832      6.6982      6.3820
C      0.7273      8.2748      4.4458
H      4.8135     -1.0938      6.6093
C     10.2471     -3.7950      4.0208
C     10.7500     -5.3121      3.4575
H      8.5685     -2.2807      9.1763
H     -5.1634      3.7189      3.6766
C     -2.5061      8.2541      7.7963
H      8.6753      3.0133      0.9583
H    -10.7636      3.9592      4.7027
H     12.1244     -2.4248     -0.6769
H     -9.1030      4.1940     13.2621
C     15.9618    -11.8050      1.9006
C     -0.5267      8.4814      1.9937
O     -9.1173      4.4337     12.4071
O     -5.2577      3.6963     10.3127
C     12.7018     -9.9392      1.8005
C      0.2825      4.0294      4.2083
C      7.2065     -2.4767      7.6130
H      9.5379     -2.1224     -2.2356
H      2.9407      9.9521      6.1297
H     12.3051     -3.0592      4.6290
H     -0.2840      8.1661     10.4056
O     13.2196     -2.7497      6.1980
C      5.7675     -2.1151      8.3488
C      0.7380      7.2887      6.9850
C      1.5228      7.3753      0.9680
H      2.3067      8.4101      2.5759
C      0.3586      7.7231      3.1612
H      8.0242      0.4657      8.5112
C     15.5452    -13.0075      3.7518
C      0.3911      2.5461      7.6502
C     10.2221     -1.9286      6.6847
C     -2.2479      3.1491      5.8111
C      4.8832     12.4954      4.4431
C      3.0769      3.6193      9.7604
C     13.7558    -10.8333      1.8964
C     11.4658     -5.5030      1.7449
C      3.5531     -0.9084      8.3306
N     14.8159    -14.2032      4.7565
C     16.4978    -11.2926      0.4741
O      3.9807      6.1653      2.1947
C     -3.4338      6.1527     13.3770
H      5.8882     10.0847      5.5644
C     -2.6060      4.3889      2.9503
C     -3.0949      8.3212      9.0595
H     -4.6012      3.5913      7.7268
H     14.7965    -11.7874      6.8805
H     -4.5922      3.2995     10.8402
H      8.1899     -4.1097      6.5088
C     10.5768     -3.4315      0.2898
H      4.7549     -6.0610      8.3825
H      1.0525      6.2245      9.1290
H     -0.7052      9.4282      2.4124
H     16.1302    -11.2594     -0.5569
H     -1.8003      4.0717      2.4468
H     -1.0435      2.8542      9.0720
C      1.6740      7.4615      2.5213
H     16.5861    -10.1670      0.6644
C      1.1828      9.6778     -1.4278
H     -5.3819      5.4330     11.2870
C     11.2481     -2.8405     -0.9942
H     15.3017    -14.1244      5.6196
C     -8.5360      8.4585      4.5989
C     -4.9343      7.2961      3.0384
C      8.0726      9.5808      0.9435
C      5.7293      8.0569      1.7959
C     -8.7107      6.0965      6.2830
C     14.8277     -7.8581      2.6181
C     -7.1939      5.9591     12.9569
C     -7.1913      7.8583      4.4944
C     -4.8507      6.3008     13.2977
H      2.1267     10.3181     -1.0185
C     -8.7903      5.1582      7.3392
C     14.4910     -7.7961      0.8538
H     -3.2486      7.8595      7.0165
C     -6.3343      7.4769      5.4667
H     14.5293    -11.1594      4.7959
H      9.9253      2.0685     -0.2275
H     -3.4300      4.2158      2.1343
C     -5.9856      5.6579     13.7240
H     -0.7377      4.0428      3.9319
O     -5.0922      7.2355      5.5945
H     -3.3014      8.6147     11.4293
H      8.6471     10.2129      0.2047
H      0.6142      3.0088      3.6148
H     14.1553     -8.6915     -1.1097
H     -7.9664      5.1784      4.3086
C     -0.0930      7.4021     11.1440
H     -6.6257      4.9378      6.7466
C      2.7174      6.3422      3.0721
C     -1.9665      4.6498      5.6176
C      0.6796      7.0990      5.4914
H     16.5615    -10.8478      4.5465
C      1.3631      5.8137      5.0037
H      0.7866     10.3487      3.7266
H     -2.3747      8.2795     10.0741
C      8.0174     -5.9543      8.0414
C      4.2570      0.5977      8.0138
C     -6.4250      7.7997      2.9115
C      9.8647     -2.4091      5.4654
C     12.7340     -6.6715      3.1800
C     -1.6223      6.4921      4.1064
H     10.0733     -0.8735      8.7017
H     15.1109     -9.5615     -0.1653
H     -7.0399      4.4556     11.4261
H     -3.0846      3.6499      5.0811
C      2.2410      0.9688      9.0524
H     11.2672     -1.6991      6.6679
C      0.8474      5.2489      3.7043
C     18.2355     -9.2708      2.3401
H      1.4240      4.7228      8.1824
H      4.9807      8.6702      6.5982
C     -5.9834      3.6207      9.2559
H     10.9295     -3.0254      1.9741
H      6.8114     -1.9821      6.6686
C      1.8904      7.1610      8.9508
C     -1.3061      5.7923      6.3249
C     15.2586    -13.0759      2.3607
C      1.0468      4.8649      6.0870
C      2.1250      6.6373      7.3765
C     14.2941     -8.9495     -0.0069
H     11.8591     -7.4247      1.3228
H     17.1034    -12.0835      2.2329
H     17.4777    -11.7054      0.7782
H      8.4859     -5.8354      6.9105
H     -5.9605      2.9173      7.5527
H     10.2643     -2.0644      4.4972
C      9.1411     -0.4275      0.1218
H     -6.1639      0.9478      4.3324
C     12.7389     -3.8055      5.2470
C     -3.9140      7.1656      9.4388
H     -8.2871      5.1735     10.9411
H      9.4299     -3.1223      3.6191
C      8.2687     -1.6680      8.3306
H     -3.1459      3.5351      3.4792
H      8.7852     -2.3310      5.3217
C     -0.0083      7.9748      7.8627
C      0.4064      3.8825      5.6843
O     -4.1201      5.5040      4.0340
C     11.4349     -4.4230      5.8548
C      6.3202      0.8682      6.7551
C     -7.7593      1.8691      6.3689
C     15.6675    -12.2684      5.9731
H      7.3654      1.2308      7.2420
H      4.8144      2.8672      8.1317
H      8.1556     -0.5958      9.9169
H     13.9666     -2.9059      6.7603
H      4.4716     12.6476      5.3548
H      0.2610      8.4355      8.9747
C      1.8777      5.0073      7.1984
H     12.9946     -8.6735      1.7243
C     -9.1028      5.4470      4.9880
C      3.8873      2.7291      8.6750
H      7.7808     10.3090      1.3405
H     13.3063     -6.4254     -0.0223
C     -4.6220      7.1473     10.6756
H      2.9898      3.2091     10.8044
H     -1.2833      5.7618     11.3964
C     17.1909     -9.7642      4.6160
C      4.8395      9.8688      5.1636
C      6.1755     -0.5966      8.9208
C      7.7631     -3.6896      7.5941
C     -7.3152      4.5985      7.4515
C      5.6851      0.4428      8.2835
H     -1.3206      3.6826      7.6161
H      9.7171     -3.3763     -0.1230
H      6.0117     -0.3073     10.0118
H     -3.1302      5.0020     13.5611
C      1.6218      9.7500      1.6385
H      3.0806      4.6750      9.7160
H     11.0939     -3.4394      3.6277
