278

C      6.7390     -3.9985     13.5593
N     11.4857     10.6600      0.6802
C      3.8080      1.3688      7.1695
C      1.8986      2.6062     15.9335
H      1.4053      0.8072     10.0391
C      7.5859      4.9334     15.3945
C      7.5321      3.5162     15.7140
C      3.3953      4.0380      5.5389
C      6.1619     -2.8507     11.3661
C      3.3763      7.2963      6.6614
C      6.0390      1.7199      4.1583
C      6.1183      9.4905      8.4263
C      0.8096      9.0015      0.9519
C      9.2219     12.3720     -0.1720
C      8.2742     13.9468      1.2433
N      0.6025      2.4692      6.3259
H      5.6193     -3.8355     11.0158
C     13.9109      6.3567      0.7829
O     -0.8421      2.7564     13.5777
C      3.3688      3.9654      7.0276
H     -0.5159      7.7226     -2.2704
H      7.6870      2.8939     14.6678
C      2.9878      6.2583      4.6271
C      3.6526     -2.2743     16.2744
H      9.6141      4.0693      4.7453
C      4.1390     -3.4925     16.0447
H      5.6968      7.7210      9.7192
H      6.4152     -1.8530     10.9486
H      5.9120      3.6288      5.0244
H      4.3134      5.0474      8.5096
H     12.7677      5.2900      6.7771
C      3.2430      2.6470      7.8583
H      9.9440     12.2205     -2.1819
H      7.2246      1.6927      4.3937
C      7.6591     12.3822      8.4820
C      9.4107     11.4691     -1.3962
C      6.6411      5.9458      9.8753
H      1.6710     -0.9426      9.5084
H      3.1732      5.2784      9.3757
C      6.1596      2.7521     16.1055
H      5.7534      3.1551      8.1069
H      2.9120      7.2310      9.6307
C      3.8087     -1.9722     17.6748
C     10.1844      8.2860      5.4372
O      2.1014      8.5702      5.0648
C     11.7721      8.0181      7.3893
C      8.5545      8.1388     12.0380
C      7.4828     -5.1326     13.0417
C      6.5621      6.7611     12.0890
H      5.5402      4.4004     14.9598
H      5.1479     -3.0614     14.0861
H      1.2026     -0.9482     19.0683
H      8.3900      7.6629      8.6097
C      8.4014      2.8576      8.7387
H      0.8068      1.4707     15.7378
C      7.1229      5.6715     11.2075
C      8.2200      6.0335     16.0131
H      8.4920      8.3064     15.2860
H      7.4047     14.2292      1.7354
C     12.2126      6.7600      5.3024
H      4.5578      8.2077      8.1525
H      3.5179     -1.4215     15.6466
H      4.0856      6.1768      2.4561
H     16.0730      6.1089      1.0871
C      9.3861     11.5918      6.8829
C      7.0333      4.7944      8.8449
C      3.0634      7.7633      5.2027
C      9.4662     14.8592      1.1233
C      5.7960      3.8456     12.6603
C      4.6110     -4.0731     14.7575
H      9.5821      7.3956      5.9301
H      9.3027      8.7766      3.7026
H      3.6245      0.6243     10.4758
H      6.9062      9.9913      9.1981
H      5.0448      0.6769      5.6190
C     -0.4430      3.2928      8.3335
H      8.1761     -2.9575     15.1584
C      0.3302      8.6807     -0.4979
C      1.8176      2.2965      8.3820
H     -2.5784      6.5519     -1.5553
H     10.4178      9.8130     -2.2681
C     12.7467      6.1700      1.5184
H      5.6870      7.3455     11.7638
H     10.8797      3.0183      5.9506
H      8.6224      7.8690      7.1723
C      9.9610      7.4613     12.6838
O      2.8353     10.0913      0.1905
C      6.8571      8.9061      7.3848
C      4.1804      8.3400      7.1787
C      3.3960      1.0698      9.4853
C      3.3191      0.3341     17.9666
H      6.6462     -2.4589     14.7588
H      7.1737      1.4686      6.9446
H     11.0241      5.7381      6.8397
H      4.9543      6.4272      8.4408
C      4.0375      3.5442     16.6240
C     10.6956      8.5204      0.4203
C     -1.8682      6.9593     -0.9735
H      8.3499      2.3621      9.8556
C      5.4985      2.5456      5.2880
H      1.6944     -2.3890      8.8086
H      5.5878     -0.8175     18.2359
C      1.9501     -1.4019      8.5936
C      4.3745     10.8846      7.3911
C     11.2679      5.2829      3.7178
C      3.9886      9.5833      6.5376
C      2.7118      3.7795     16.0642
C      5.4925      6.8023      9.3597
H      1.0196     -1.3197      7.9603
H      2.6229      7.6159      0.7714
H      0.2790     11.0698      1.5545
H      8.6596      6.5466     17.5835
H     10.1475     12.2311      0.2301
H     16.4555      4.3347     -0.0310
O      5.7531      6.4623      6.3169
C      0.9113      8.1165      4.6094
H      4.0919     -1.0978     19.2651
C     10.1245      8.2777      3.8672
C     11.0119      7.5387      3.1038
H      8.2296     10.2094      8.3194
H      8.3307      2.9383     16.2229
C     10.7736      8.5421      8.0560
H      9.5040     15.6431      1.9923
H      1.7451      2.9103      4.7097
H     11.1736     11.2708     -2.1371
H      4.1476      3.6746     11.4913
C      2.5651      1.2641     15.1268
C      0.0131      8.6001      2.2705
O      4.8131      4.2902     11.6410
O      6.9336      3.2717     10.3685
C      0.1547      3.2412     14.3308
C     13.0414      4.2396      4.3277
C      6.6381     10.9538      6.5186
H      2.7699      9.9396      6.4753
H     -0.5805      9.3203      4.0407
H     -1.6557      8.8840     -1.7694
O      0.1618     10.3134      5.4446
C      5.7121     11.1422      7.5221
C     13.9523      7.0535      6.9972
C      1.7289      7.6241      1.1119
H      2.7739      8.5941      3.0484
C      0.9121      7.8011      3.1119
H      7.6731     13.1000      7.5945
C      2.0761     -0.1081     17.3081
C      0.6680      2.8598      7.7100
C     10.3758     10.5887      6.5362
C     10.5405      3.6941      4.9980
C      4.2647     -0.7765     18.2773
C      0.5028      2.7372     15.6226
C     11.6313      7.7286      1.7943
C      3.4023     -1.2283      8.3551
N      1.0938     -0.6953     17.9373
C      2.3764      0.9483     13.7061
O      4.7036      5.9912     13.4619
C      9.2683      6.5170     13.8318
H      5.6107     10.2754      5.3263
C     10.5229      4.6975      2.7834
C     10.3927      8.1262      9.3397
H      9.1614      3.6075      8.7805
H      2.1711      0.2307      6.8101
H      7.5517      9.0563      5.5221
C     11.1891      9.9491     -0.2633
H      4.6545      6.3698      9.9211
H      1.4151      5.8524      9.5252
H     -0.5104      9.5034      2.6019
H      0.9770      8.1426     -2.4063
H      2.8624     -0.1512     13.5229
H     -0.3731      3.2275      9.4633
C      2.2613      7.6096      2.7275
H      1.4006      1.0351     13.7278
C      1.2754      8.1866     -1.4141
C      6.4591     -2.9365     12.6181
H      7.5640      4.6582     11.5393
C     10.5948     10.5167     -1.5926
H      0.2332     -0.4410     17.6742
C      4.2973      8.7059      4.3683
C      7.9197      7.4024     15.4765
C      7.6611     -2.9348     14.2532
C      5.7184     -4.8878     14.6634
C      4.3652      6.1991      6.5861
C     15.0639      5.1071      2.7578
C      6.0732      5.2348     13.1715
C      5.6378      7.7414      4.2106
C      7.8167      6.8190     14.0706
H      2.1092      7.5904     -1.1296
C      4.6723      4.8835      7.4415
O      0.9926     11.3929      1.0538
C     14.9167      5.3440      1.2023
H     10.5271      9.7319      7.4525
C      6.3609      7.0494      5.3378
H     -0.3347      1.9400      6.3523
H     10.3055     14.2153      0.5954
H     10.1625      5.0996      1.8424
C      6.8925      5.5201     14.3083
H     12.8160      3.2434      3.5554
O      7.5402      7.1161      5.3929
H      7.3856      9.2550     10.5456
H     10.0269      8.7616      1.4868
H     15.4333      3.0485      0.9301
H      4.5136      5.1806      4.0947
C     -0.9413      8.0886     -1.3473
H      6.6555      4.2538      6.9098
C      2.9145      6.3689      2.9562
C     11.7579      4.5114      4.8955
C     13.6690      6.8635      5.4109
H      5.8097      8.8342      9.1821
H      2.2170      1.7293      5.9495
C      1.6374      5.9088      4.9209
H      0.6772     -0.1804     15.6876
H     10.7940      7.2940      8.9470
C      7.7783      7.6843      7.7412
C      4.0594      0.1729      8.2923
C      6.3954      7.8398      3.0128
C      9.6555      9.7260      5.6034
C      0.0608      6.4158      2.9652
C     11.8265      6.6253      3.8014
H      9.6255     12.8592      6.8664
H     14.9939      3.6870     -0.4552
H      3.6536     -4.2040     14.1414
H     10.9102      3.1366      4.0603
C      1.9579      1.3839      9.3775
H     11.7026     11.0067      6.6179
C     13.8589      5.3272      3.6807
C      5.1958      3.6435     15.8476
H      1.2799      4.5699      8.0169
H      5.1258      8.2920      6.5558
C      7.4729      3.6665      9.4224
H     11.7205     11.6833      0.4115
H      6.5359     11.8480      5.8102
C      2.5047      6.2192      9.2685
C     11.9814      5.4090      6.0731
C      1.6867      0.0843     15.9871
C      1.7144      4.6810      5.8013
C      2.2943      6.5811      7.6355
C     15.4763      4.1641      0.3323
H     12.1518      5.2073      1.4387
H      3.4727      0.8634     15.8884
H      9.2571      9.6344      9.2986
H      3.0314      1.6020     12.7781
H      7.1425      6.8733      8.2421
C      8.0355     12.8410      0.4035
H      5.6951      0.7378      4.0384
C     -0.2060      8.9366      5.0654
C      9.3931      8.8114      9.9412
H      8.6470     -2.8510     13.4416
C      8.4791     11.2560      7.8247
H     10.3463      3.8157      3.3013
H      8.7975      9.6800      6.1045
C     13.0853      7.5814      7.8933
C      0.8929      3.4457      5.3605
O      8.7454      5.6749     17.1377
C     -1.3129      8.0576      5.9425
C      6.2444      1.2331      7.4012
C      5.2871      1.5328      6.2836
C      2.7833      0.9035      6.2430
H      4.8001      2.5105      9.2779
H      8.2157     12.7804      9.4323
H     -0.6166     10.9851      5.3769
H     13.5047      7.5457      8.9222
C      2.1933      5.0233      7.2397
H      0.4905      4.2077     13.8301
C      3.9557      5.3952      5.2236
C      3.8680      2.5256      9.2514
H      7.1430     12.3112     -0.1516
H     13.9056      6.6536     -0.2000
C      8.2867      8.5609     10.8244
H      7.9053      4.9571      8.2860
H     -1.0504      6.5764     -0.3657
C      4.0328      2.7783      4.9062
C      4.4958      9.8292      5.3559
C      6.2648     12.1839      8.8235
C      7.2644      9.6016      6.3987
C      6.0748      4.1675      7.7432
C      5.5498      0.2911      8.2154
H     -0.8458      3.9077      7.4722
H      6.4854     -1.8948     12.9303
H      9.1227      5.6697     13.2875
C      1.6424     10.1568      0.6196
