280

C     19.6122      8.8739     13.5577
N     -2.3917     10.3704      1.2119
C      3.6488      1.4880      7.1239
C      2.1351      2.5392      2.5862
H      1.2811      1.4280     10.2914
C      7.3899      4.9881      2.5815
H     -2.8258      6.7953      2.3457
C      7.7314      3.7579      3.2093
C      3.3256      4.2483      5.3209
C     19.3676     10.2884     11.5295
C     16.2348      7.5482     19.5941
C      6.3613      1.8668      4.2404
C     -6.4320      9.0555      8.9874
C     13.6305      8.7935     13.8170
C     -3.3978     12.0324     -0.6845
C     -4.3240     13.5415      0.9563
N      0.3923      2.8392      6.3394
C      0.4967      6.2451      0.6639
O     -1.2024      2.2355      1.2351
C      3.2398      4.3338      6.7540
H     13.5181      6.7941     11.2002
H     -4.4366     13.1355      1.9914
C     15.6972      6.3742     17.4149
C     16.8579     10.6769     16.1157
H     -1.2803      2.8147      5.8203
C     16.7906      9.0383     15.9362
H      5.5565      7.4904     10.2124
H     20.2161     10.8851     11.2153
H      2.1959      4.4160      9.5887
H     -0.0638      5.2729      5.9700
H      5.8673      1.2911      9.2415
C      3.0487      3.0032      7.8205
H     -3.0622     11.6374     -2.7106
H      7.2583      1.6757      4.6144
O     14.2303     10.3211     15.5605
C     -5.2533     12.4980      8.9290
H     18.8908     10.3333     13.3820
C     -3.2962     11.0966     -1.8866
C      6.0564      5.8446      9.8042
H      2.6696     -0.3502      6.9211
H      3.8663      5.3431      8.2305
C      6.5775      2.9657      3.1394
H      5.8559      3.7014      7.0952
H     18.6676     11.0128     11.3209
H     -8.9808     12.0389      9.3978
H      2.4485      7.9430      9.4183
C     17.4233     10.9415     17.4189
C     -2.6150      8.5640      5.1150
O      2.1184      8.6787      4.7639
C     -1.4653      8.1141      7.2324
C      8.6302      7.8535     11.8497
C      7.5943      7.6067     12.9564
C      6.5315      6.6933     12.1337
H      5.3686      3.5299      1.5177
H     16.6399      9.5089     13.8227
H      2.0059     -2.2702      4.6488
H     -5.2821      6.3559      8.6030
C      8.0316      2.8406      8.6969
H      0.7427      1.2093      2.7940
C      7.1747      6.0915     11.0301
C      8.0103      6.1309      3.2313
H      8.3113      7.9847      1.9112
C     -0.9933      6.9293      5.2255
H     16.2249      8.9133     21.2448
H     17.4724     11.1838     15.2329
H      2.4998      5.5103      0.4807
C     -3.1771     11.1056      7.8056
C      6.1833      4.4457      9.0902
C     16.0643      7.7795     17.9412
C     -3.7234     14.7285      0.7304
C      5.1203      4.6460     -0.0750
C     17.1901      8.6733     14.6044
H     -3.5448      7.9185      5.1931
H      8.5149      8.2096      3.4623
H      3.3573      0.6129     10.5379
H     -7.0556     10.0267      8.7822
H     18.9381     12.2161     17.9249
C     -0.5690      3.5622      8.1009
H     20.7387     10.9161     14.3031
C     13.1759      8.7421     12.3035
C      1.8270      2.8589      8.3520
H     10.8827      6.2556     11.0438
C     -0.8196      6.3815      1.3969
H      5.7170      7.4382     12.0719
H     -2.2667      2.8023      4.5325
H     17.8659      8.7393     12.3855
H      7.9102      6.6767      6.3647
C      9.9741      7.2452     12.5561
O     15.4909     10.6123     13.7794
C     -5.5756      8.6464      8.0648
C     17.0334      8.6894     20.2770
C      3.1540      1.2242      9.5561
C      2.3864      0.9805      4.7285
H     -5.3505     11.8693      0.2136
H     -1.4717     10.5900      1.4901
H      6.3278     -0.0597      6.7398
H     -1.5251      5.3050      6.8705
H      3.6987      6.8267      9.4560
C      4.1616      3.5662      3.2320
C     -2.2232      8.3479      0.4787
C     11.4904      6.7240     11.9164
H      7.2147      2.0984      9.0367
C      5.3563      2.4674      5.1715
H    -10.9338     12.3141      9.0241
H     17.8021     12.5344     16.5604
C    -10.6159     11.5252      8.3153
C     -8.2283     11.1418      7.2737
C     -2.4977      5.1418      3.7517
C     17.0492      9.9067     19.3543
C      2.8164      3.6790      2.5383
C      5.3911      6.8757      9.3994
H     15.1044      7.5904     13.2052
H     -2.9142     12.9832     -0.8679
H      0.6147      4.6347     -0.7794
O      5.5555      6.8964      6.3941
C      0.7035      8.3717      4.4587
H     -8.3664     11.8343      6.5143
C     -2.5196      8.7371      3.5306
C     -2.1616      7.4224      2.7930
H     -4.4518     10.3081      9.2040
H      8.1041      3.3838      4.2362
C     -2.7650      8.3266      7.6437
H      2.4400      3.9218      4.7862
H     -1.4553     11.6433     -1.7580
C      2.7767      1.1607      2.1605
C     -0.2092      8.8689      1.9449
O      3.8027      4.5122      0.2967
O      7.8188      3.4182     10.8161
C     -0.3388      3.0970      1.8535
C     -0.0455      3.7871      4.1375
C     -5.7302     10.9566      7.0046
H     -4.3597     10.5029     -2.3965
H     16.1492     10.4541     18.9954
H     -0.9943     10.0786      4.5048
H     12.2746      8.1996     10.4822
O      0.2021     10.1027      6.4283
C     -6.9271     11.0185      7.9696
C      0.7650      7.4685      6.8421
C     14.2856      7.5496     13.8100
H     15.8981      8.2915     15.8223
C      0.4813      7.7789      2.9826
H     -5.0088     13.3436      8.3029
C      2.0528     -0.1795      3.9218
C      0.4451      2.9601      7.6608
C     -2.4594     10.3575      6.8542
C     -2.3118      3.4007      5.3593
C     17.7722     12.3265     17.7044
C      3.3584      4.1196      9.8658
C      0.7101      2.1979      2.1429
C     -1.3083      7.9753      1.6994
C     -9.2424     11.5179      8.4066
N      1.9050     -1.3703      4.7177
C      3.2203      1.2191      0.8563
C      9.4579      6.1680      0.5165
C     -2.7477      3.9808      2.7777
C     -2.9338      8.4896      9.3144
H      9.0275      2.1942      8.7982
H      1.4136      1.1494      6.6976
H     -5.6494      8.9567      6.1617
C     -2.0516      9.7732     -0.1029
H      5.3126      6.8950      8.3815
H      1.7803      6.7173      9.6412
H     -0.4128      9.8174      2.3560
H     14.5502      8.6868     10.6989
H      2.9581      1.8873      0.0463
H     -2.0359      2.3761      1.4494
H     -1.0626      3.5316      9.0798
C     14.8101      7.5284     15.2139
H      4.2619      1.6566      1.1007
C     14.3081      9.1600     11.6653
C     18.7260      9.5328     12.5609
H      7.3217      5.0689     11.2917
C     -1.7856     10.7180     -1.4048
H      1.0912     -1.2319      5.6582
C      4.4439      8.3908      4.4323
C      7.8607      7.6189      2.8744
C     20.8350      9.8274     14.1656
C     18.7312      8.5391     14.8338
C      4.2158      6.2742      6.4277
C      1.9592      4.9599      2.3830
C      6.0490      5.7765      0.3502
C      5.6710      7.5440      4.1711
C      8.1047      6.4138      0.6932
H     15.2449      9.6749     12.0853
C      4.4475      4.9575      7.2947
C      1.5910      5.1097      0.8134
C      6.3952      7.1237      5.3998
H      2.2674      1.9877      4.3220
H     -3.8988     15.0673     -0.3775
H     -3.2085      4.2792      1.6995
C      7.0497      5.4164      1.2789
O      7.7055      7.1983      5.5552
H      8.9710      9.0447     11.7012
H     21.2028      9.3375     15.0659
H      2.0919      4.4021     -1.1292
H      4.5058      5.4368      4.1002
C     12.6675      7.5530     11.4399
H      6.6678      4.8032      6.8378
C     15.4679      6.2677     15.7944
C     -1.8777      4.6689      4.9723
C      0.6332      7.2387      5.3692
H      3.4197      1.3017      4.9600
C      1.2278      6.0751      4.8007
H      2.3140     -1.1110      2.0447
H     15.9264     11.1615     16.0090
H     -2.1456      8.2092     10.0336
C     -4.7268      7.2728      8.1820
C      3.9085      0.8194      8.3209
C      6.4865      8.0584      2.9661
C     -3.1552      9.9592      5.6824
C     -0.2782      6.4578      2.9903
C     -1.5840      6.4804      3.7759
H     -2.0845     11.5335      8.1982
H      1.4734      3.2023      0.3460
H      5.5768      3.6885      0.1933
H     -2.9496      3.4130      6.2487
C      1.8036      1.7502      9.3857
H     -1.4821     10.0251      7.2184
C      0.7708      5.4038      3.4520
C      5.3929      3.2473      2.3963
H      1.4211      4.3518      7.5339
H     18.0965      8.7482     20.7027
C      7.4775      3.7873      9.6993
H     -3.3082     10.7474      1.4545
H     -5.5554     11.6013      6.1417
C      2.6775      7.0566      8.9521
C     -1.3569      5.5720      5.8235
C      2.1512     -0.1732      2.6231
C      0.9175      5.1752      5.9588
C      2.1075      6.8508      7.4598
C      1.3415      4.1208     -0.0768
H     -1.6148      5.7809      1.5059
H      3.7081      0.7563      2.7199
H     -3.0275      9.6628      9.6370
H      3.2797      0.2071      0.4589
H     -3.9625      6.6682      7.6287
H      7.7086      2.7782      7.6139
H     -2.5324     10.4973      4.8872
C     -4.4470     12.3148      0.1502
H      5.7466      1.1022      3.6539
C     -0.1026      9.5802      4.9754
C     -4.2295      7.6836      9.4803
H      5.1353      4.8698     -1.2423
H     -3.5725      9.2144      3.2197
C     -4.5686     11.2792      8.2155
H     -1.6474      3.6099      3.0737
H     -4.1473     10.0129      5.7143
C     -0.2277      7.6390      7.7278
C      0.6212      3.7814      5.5011
O      9.0828      5.8465      4.1638
C     -1.4088      8.2495      5.6188
C      5.9242      0.9500      6.9249
C      4.6945      1.5324      6.0561
C      2.3901      0.6298      6.4168
H      5.3108      3.4200      9.3542
H     -4.6698     12.6734      9.9308
H      1.0949     10.3886      6.8263
H      0.0979      7.6006      8.7835
C      1.8667      5.1730      7.0258
H     -0.4462      4.1928      1.4502
C      3.7143      5.5433      4.9654
C      3.9652      3.1861      9.1057
H     21.6696      9.6894     13.3414
H      0.8567      5.9504     -0.4672
C     -4.6768      7.1296     10.6440
H      3.0966      3.4628     10.9852
H     11.7712      5.6115     12.4767
C      4.3373      3.4522      4.8009
C     17.9258      9.7535     18.0745
C     -6.8024     12.1706      8.8262
C     -5.2919      9.4806      6.8492
C      6.0188      4.7363      7.6621
C      5.3916      0.6269      8.2380
H     -1.3684      3.8572      7.3538
H     -3.0628      9.8049     -0.6064
H     -7.5627     12.4329      9.9110
H      9.8139      5.8494      1.5720
C     14.5616     10.0885     14.3965
H      4.1744      4.8251     10.1663
H     -1.6772      9.3453      3.1858
