288

C     20.2198    -16.7408      1.0182
N     -1.7340     10.6504      1.2757
C     16.9421    -11.3900      7.2419
C      2.2099      2.2283      2.3962
H     13.9077      1.0403      9.5543
C      7.9459      5.0026      2.5242
H     -2.8351      6.4986      2.8593
C      7.7494      3.6838      3.1507
C     16.2251     -8.7518      5.6826
C     19.7399    -15.6223     -1.1243
C     16.0587     -5.6833      6.8209
C      6.1119      2.1682      4.0385
C     19.2023     -3.3075      8.7698
C     13.6811      8.8336      0.8923
C     -3.5112     12.0411     -0.1439
C     -4.5882     14.2470      0.5646
N     13.6666      2.4387      6.0190
H     20.7072    -16.1088     -1.5913
C      1.0804      6.3006      0.6824
O     -0.9500      2.6437      0.6384
C     16.0246     -8.7341      7.2332
H     13.2471      7.1688     -2.0014
H     -5.5452     14.2306      1.1150
C     15.7739     -6.5408      4.3373
C     16.5749    -15.2944      3.2407
H     11.4702      3.3635      6.1862
H      4.2416      5.9439      1.0346
C     17.0612    -16.6022      3.2162
H      5.0402      6.7098     -4.2098
H     19.5323    -14.8589     -1.9501
H      3.8998      5.5883     -4.5754
H     11.8560      5.9257      7.0081
H     19.1534      1.3758      9.4023
C     16.3096    -10.1974      7.9211
H     -2.9123     11.7344     -2.2634
H      7.1503      1.8414      4.4462
C     20.8599     -0.5846      8.8611
C     -3.0828     11.2554     -1.4082
C      6.1514      5.7772     -2.8293
H     14.7123     -1.2495      9.0988
H      1.0486      5.8819      9.1714
C      6.3920      3.1906      3.1602
H     17.2304     -1.2109      9.3370
H      2.7308      6.7273      9.5438
C     16.6526    -14.8787      4.7141
C     -2.7170      8.5750      4.7853
O     14.9358      8.6281      5.0247
C     -1.5346      8.0921      7.1503
C      8.8517      7.6814     -1.0465
C      7.8154      7.5675      0.0495
C      6.4975      6.7837     -0.5351
H      5.2095      4.6065      2.2906
H      6.3751      4.1065     -1.0118
H     17.6605    -15.7566      1.4583
H     13.1929    -13.0917      5.4771
H     21.4850     -5.1981      8.6410
C      7.6592      2.5848     -3.9691
H      0.5810      1.1868      1.3273
C      7.1024      6.1352     -1.7665
C      8.2489      5.9629      3.5552
H      8.1356      7.1252      2.4718
C     11.9303      6.7897      5.2580
H     16.6941     -4.6470      8.7076
H     16.2004    -14.6168      2.4123
H      3.8060      6.7169      2.2129
H     16.1294      4.9468     10.1052
H      2.9084      5.5448      0.3607
C     -3.2067     11.5389      7.2536
C      6.4744      4.7392     -3.8732
C     15.9141     -5.1162      5.1791
C     -3.5134     15.1065      0.6715
C      5.5697      4.3993     -0.1120
C     17.6670    -16.9073      1.9764
H     -3.6400      7.8019      4.7757
H     16.5710      1.1911     10.6848
H     19.7763     -2.8619      9.5251
H     17.2701    -13.2313      5.6617
C     12.6782      2.6245      8.2075
H     21.6666    -15.9474      2.5990
C     13.2603      8.5721     -0.5831
C     14.8725      2.4261      8.2077
H     11.1492      6.1455     -2.2818
H     -1.2146      9.8948     -1.6503
C     -0.3610      6.2974      1.4829
H      5.5686      7.0783     -1.1385
H     10.2050      2.8558      4.6851
H      5.8504      3.2704      5.3819
H     21.2216     -6.3272      7.6800
C     10.0990      7.3998     -0.6890
O     15.2284     10.3852      1.2419
C     19.9832     -4.2491      7.7797
C     16.7989     -4.4634      7.4644
C     16.2926      1.2985      9.6497
C     16.3240    -12.3718      4.7547
H     21.5974    -15.4461      0.7075
H      6.8437      0.0485      6.4395
H     10.1802      5.7599      5.9050
H      3.6593      6.0643     -3.0715
C      3.8904      3.5283      3.4850
C     -2.0114      8.5042      0.6363
C     11.2577      6.7483     -1.4450
H      8.4506      1.7776     -3.5535
C      5.1787      2.2990      5.2293
H     14.8451     -1.7204      7.2897
H     18.0438    -13.4533      3.8366
C     15.1362     -1.0469      8.2345
C     17.4727     -1.7053      7.5043
C     11.0241      4.9978      3.6760
C     16.5390     -3.2154      6.8476
C      2.7474      3.5562      2.4654
C      4.9524      6.5494     -3.0483
H     14.8859      0.0845      8.0753
H      2.7297      7.6937      0.3682
H     13.8596     12.3100      0.9173
H     -2.6352     12.7583      0.2510
H      1.0573      4.0422     -0.9209
O      5.5418      7.2319      6.6781
C     13.6665      8.0782      4.6148
H     17.4996     -1.1442      6.6534
C     -2.5962      8.7402      3.3512
C     -2.0673      7.2652      2.9298
H     20.9676     -2.6955      8.3364
H      8.6696      3.0818      3.3850
C     -2.6514      7.7337      7.7613
H     -3.5910     16.1003      1.5219
H     14.8841      2.6558      4.1548
H     -0.8863     11.3005     -0.6609
H      5.3976      5.0241     -1.6471
C      2.4745      0.6942      1.9488
C     12.7810      8.6118      1.9973
O      4.5235      4.8989     -0.8870
O      8.0455      3.8013     -2.2087
C     -0.1171      3.1443      1.4117
C     12.9865      4.0491      4.0848
C     19.8535     -2.0480      6.9448
H     -3.8392     10.5672     -1.4050
H     15.3289     -3.2532      6.6942
H     -0.5883      9.6379      4.2836
H     12.0544      8.4151     -2.7258
O      0.0518      9.6890      6.3926
C     18.9203     -1.8488      8.0039
C      0.6700      7.1178      6.8786
C      1.8624      7.6944      1.0954
H      2.7565      8.4884      2.8427
C     13.6635      7.6917      3.1220
H     20.8742      0.4625      8.6311
C     14.8478    -13.1082      4.0610
C     13.7566      2.5570      7.2958
C     -2.5623     10.8613      6.1761
C     10.7365      3.3905      5.5727
C     17.2244    -13.5629      4.5305
C     15.7257      3.7597     10.3615
C      0.9246      2.1030      2.0075
C     -1.2498      7.6758      1.6031
C     16.7239     -0.9021      8.3955
N     13.9777    -13.4831      5.3557
C      2.5847      0.3812      0.4512
O      5.2319      6.3351      1.3582
C      9.6773      6.0775      0.2212
H      5.4295      9.8520      5.5877
C     10.5707      4.1490      2.7707
C     -2.7751      7.5071      9.2162
H      8.5807      3.2822     -4.3712
H     15.3643    -10.8736      5.8717
H     19.9414     -4.0881      5.8228
C     -1.3928     10.0057      0.2439
H      4.6745      7.5164     -2.5143
H      1.1121      7.5188      9.3228
H     12.2649      9.7109      2.2542
H     14.7052      9.4103     -2.4806
H      1.9992     -0.7436      0.3665
H     13.0570      2.4523      9.0650
C      2.1332      7.7121      2.5109
H      1.9870      1.0517     -0.0886
C     14.3922      9.1156     -1.3849
C     19.6007    -15.6262      0.1865
H      7.9667      5.5488     -2.1623
C     -1.7216     10.7010     -1.0685
H     14.6617    -14.1391      5.8260
C      4.2190      8.4257      4.6258
C      7.6290      7.1425      3.4715
C     21.5627    -16.1637      1.4204
C     19.0804    -17.3733      1.9504
C      4.1383      6.0088     -6.4880
C      2.0686      4.9320      2.4014
C      6.1550      5.7848      0.4953
C      5.5176      7.6554      4.4235
C      8.5065      6.3795      0.6332
H     14.9422      9.6268     -0.6388
C      4.3880      5.0440     -5.3610
O     13.3988     11.3275      0.6568
C      1.9981      5.1063      0.8550
H     -3.5106      8.3747      7.2592
C      6.2036      7.4253      5.7042
H     -2.7692     15.2128      0.1924
H     10.6969      4.0043      1.5139
C      7.4731      5.4773      1.3173
H     12.4655      3.4625      3.1147
O      7.5479      7.1855      5.8677
H     -5.1178      7.4297     10.3667
H      1.7790      2.9623      0.2833
H      4.3074      4.9491     -8.7153
C     12.3285      7.8070     -1.7761
H      6.2581      4.8499     -5.9384
C      2.9806      6.4277      2.7989
C     11.6947      4.5149      4.9822
C     13.5160      6.7258      5.5012
H     18.1308     -3.2180      8.5485
H      3.2921      2.0247      5.4306
C     14.4105     -7.2336      4.7215
H     13.2675    -13.7328      3.0196
H     -1.7942      7.4722      9.7247
C     20.5382     -5.5758      8.1163
C     16.9373      0.5357      8.4518
C      6.3893      7.8412      3.0945
C     -3.2106      9.8313      5.5345
C     -0.0643      6.2085      2.9306
C     11.7035      6.3108      3.8373
H     -2.6182     12.2431      7.9664
H      0.3452      4.0802      0.1799
H     16.7327    -17.1621      1.3303
H      5.7271      3.6910      0.6691
H      9.7849      3.7236      5.9577
C     14.8168      1.4254      9.1317
H     -1.6255     10.9178      6.3488
C      1.0294      5.1720      3.3748
C      5.1531      3.9058      3.0338
H      0.9218      4.7247      7.3673
H     17.8896     -4.7171      7.4626
C      7.4324      3.6952     -3.2455
H     -1.3533     11.5427      1.3092
H     19.6095     -1.5974      5.9406
C      1.8413      6.7246      8.8725
C     11.3966      5.5833      6.0446
C     14.3524    -13.0187      2.8602
C     14.7910     -8.4456      5.4582
C      1.9986      6.5505      7.5628
C      1.6380      3.9725      0.0631
H     -0.8281      5.4568      1.1222
H      3.4546      0.7461      2.3655
H     -3.4577      9.3748      8.7083
H      3.5402      0.2192      0.3709
H     19.6117     -6.2499      8.6179
H      7.0466      2.6427     -5.0464
H     -4.0558     10.2635      4.9016
C     -4.6224     12.8929     -0.2725
H      5.8966      1.0344      3.6283
C     -0.4233      9.0246      5.2684
C     -3.4850      8.6831      9.6587
C     21.1864     -1.6459      7.7100
H      9.8844      3.6023      3.5633
H     -3.9721      9.1471      6.3431
C     -0.3075      7.6847      7.6286
C     14.1431      3.2448      5.0580
O      8.8622      5.3704      4.5940
C     -1.5283      8.2326      5.6583
C      6.0328      0.6065      7.0663
C      5.2166      1.4079      6.4521
C     15.8425    -11.9915      6.2587
H     17.9747      2.9987      9.4498
H     21.5190     -1.0812      9.9355
H     -0.4114      9.2264      7.2123
H     16.2681    -11.4650      4.1406
H     -0.2291      7.6138      8.7772
C      1.9188      5.0321      7.2949
H     -0.2003      4.0655      1.6631
C      4.0616      5.7780     -8.0346
C     16.7979      2.8528      9.3986
H     -5.5646     12.3424     -0.7252
H      1.1384      6.2282     -0.5657
C     -4.3817      8.5054     10.7238
H     16.1632      3.8834     11.4832
H      7.1855      5.3670     -4.2096
H     12.0618      5.7830     -1.1973
C      3.8866      3.1554      4.9751
C      4.3335      9.8788      5.6293
C     19.3335     -0.7912      9.0350
C     20.1768     -3.4947      6.7506
C      5.6036      4.4627     -5.1918
C     18.7095      0.6210      8.5713
H     12.5465      3.8211      8.2122
H     18.9255    -14.9639      0.7025
H     18.8559     -1.0703     10.1511
H     10.0705      5.1475      0.1351
H      0.1765      1.6932      3.1055
C     14.1082     10.2906      0.7966
H     14.7110      3.4394      9.8145
H     -1.4968      9.2435      3.2248
