280

C     20.0437      8.6947     13.4328
N     -2.3328     10.6532      1.3517
C      3.6829      1.3729      7.0971
C      2.2163      2.4973      2.1660
H      1.2593      1.9642     10.3070
C      7.4155      5.2153      2.5883
H     -3.2966      7.2937      3.0644
C      7.4330      3.7510      2.9346
C      3.3901      4.1493      5.3227
C     19.5033      9.9905     11.0731
C     16.2709      7.4165     19.5481
C      6.3314      1.8436      4.3525
C     -6.8481      8.4301      8.7310
C     13.7789      8.4722     13.6608
C     -3.6568     12.3701     -0.9662
C     -4.3288     13.5296      0.8775
N      0.5414      2.7208      6.4109
C      0.4697      6.4479      0.7165
O     -1.4464      2.2994      1.5797
C      3.2279      4.3335      7.0143
H     13.7029      6.9592     11.1241
H     -4.8023     13.7326      1.8168
C     15.8766      6.4245     17.2326
C     16.7751     10.3215     16.1168
H     -1.3302      2.7606      6.2857
C     17.0139      8.9279     15.8212
H      5.0642      7.6861     10.0806
H     20.3478     10.7454     10.6445
H      2.2165      4.2564      9.6943
H      0.4451      5.9291      5.7917
C      3.0063      2.9440      7.6515
H      6.9998      1.9360      5.2188
O     14.2884     10.0376     15.6817
C     -5.3315     12.4809      9.1340
H     19.3079     10.6370     12.7498
C     -2.9778     11.1856     -1.6818
C      6.1035      6.0937      9.8386
H      2.1448     -0.4196      6.6964
H      4.3335      5.7830      8.2225
C      6.4073      3.0716      3.2770
H      5.8003      3.2147      7.4148
H     -8.3326     11.2961      9.4163
H      2.7086      7.6713      9.3519
C     17.5700     10.8061     17.1718
C     -2.8078      8.8796      5.2419
O      2.1772      8.7673      4.9989
C     -1.5069      8.4010      7.1797
C      8.6592      7.8813     11.7357
C     20.4451      7.4502     12.7627
C      6.3851      6.5087     -0.8333
H      5.7866      3.8415      1.6133
H     17.2175      9.3409     13.7545
H      1.6647     -1.9552      4.4586
H     -5.8869      6.1862      8.3189
C      7.8413      2.9354      8.6804
H      0.4064      1.3848      2.0865
C      7.1678      6.2735     10.9149
C      8.3793      6.2124      3.0949
H      8.4623      8.0815      2.2106
C     -1.0874      7.0209      5.0315
H     15.9829      8.8572     20.9077
H     16.9495     10.7678     14.9791
H      2.4803      5.7837      0.8485
C     -3.1886     11.0783      8.1783
C      6.2062      4.7360      9.1326
C     16.0320      7.5199     18.1386
C     -3.6761     14.7509      0.9568
C      5.2040      4.4831     -0.9102
C     17.8437      8.8865     14.6771
H     -3.6179      7.9365      5.2916
H      8.3007      8.3190      3.9522
H      3.4760      0.8588     10.4298
H     17.8199     12.9334     17.9406
C     -0.6612      3.8044      8.2835
H     20.4470     10.0512     15.0752
C     13.2547      8.5073     12.0789
C      1.5708      2.5899      8.1719
H     10.8665      6.1305     10.7274
H     -1.4890      9.3080     -1.6436
C     -0.7261      6.4555      1.5186
H      5.6641      7.3095     -0.9256
H     -2.5190      2.8058      4.6971
H     18.1998      9.1091     12.2587
H      8.2406      6.5670      6.4040
C     10.1187      7.1585     12.5664
O     15.6287     10.2872     13.8945
C     -5.7783      8.2251      8.0710
C     16.5288      8.7646     20.0809
C      3.2878      1.4056      9.4293
C      2.3576      0.9490      4.7836
H     -1.2159     10.9014      1.2748
H     -6.6971     12.6266      6.5533
H     -0.9832      5.5416      7.0574
H      2.3389      5.7176      8.7801
C      4.0592      3.4668      3.2350
C     -2.1946      8.3112      0.5040
C     11.3399      6.6015     11.5994
H      7.5214      1.8466      8.9431
C      5.2305      2.3401      5.2805
H    -10.3738     12.3918      9.5762
H     17.8972     12.7174     16.0821
C    -10.4744     11.5661      8.8739
C     -8.3504     11.0398      7.2546
C     -2.4889      5.4146      3.5644
C     16.7166     10.0433     19.1283
C      2.5365      3.8378      2.9133
C      5.4099      7.2199      9.3711
H    -11.1853     11.9765      8.1460
H     15.8932      7.3616     13.7809
H     -3.6591     13.2737     -1.3983
H     -0.0071      3.8073     -0.2199
O      5.8635      6.8833      6.5555
C      0.8817      8.4950      4.4255
H     -8.7889     11.9236      6.6500
C     -2.5379      8.9754      3.6878
C     -2.2311      7.7445      2.9357
H     -4.3953     10.3616      9.4997
H      8.3949      3.7253      3.4748
C     -2.4793      8.3147      8.0551
H     -3.6139     15.2061      1.8650
H      2.1688      4.0525      5.1029
H      4.2983      3.6519      0.4175
C      3.2662      1.3432      1.9362
C     -0.1939      8.5756      1.8873
O      4.1290      4.3833     -0.1904
O      7.2707      3.4234     10.8970
C     -0.3552      2.9279      1.8017
C      0.1619      3.9059      3.8891
C     -5.5628     10.6248      7.5163
H     -3.8679     10.6186     -1.9240
H     15.8788     10.4439     18.8650
H     -0.8094     10.5976      4.7234
H     12.6244      7.2523     10.1828
O      0.6792      9.8957      6.2231
C     -6.9424     11.1278      7.9048
C      0.8167      7.2837      6.7073
C     14.6321      7.4749     14.0393
H     15.9326      8.4093     15.7398
C      0.6173      7.8503      3.0491
H     -4.6815     13.0210      8.6755
C      2.3440     -0.1200      3.8073
C      0.5653      3.1913      7.6527
C     -2.6606     10.7883      6.9678
C     -2.1371      3.3257      5.6839
C     17.7768     12.2573     17.2177
C      3.1662      3.8827     10.1865
C      0.8780      2.2258      1.8153
C     -1.3282      7.8134      1.5455
C     -9.0582     11.5893      8.4489
N      1.3186     -1.0061      4.2823
C      3.5402      1.4096      0.4393
C      9.3515      6.2641      0.3383
H     18.5516      9.2864     18.9944
C     -2.6609      4.3890      2.6621
C     -2.8748      8.2495      9.5329
H      9.1977      2.7136      8.5338
H      1.4716      1.4565      6.6892
H     -4.9555      9.0360      6.2561
C     -2.4867      9.7155     -0.0113
H      4.3960      7.0742      9.0619
H      1.4308      6.7260      9.1680
H     -0.2940      9.6605      2.0934
H      2.7441      1.5328     -0.3012
H     -2.1253      4.3411      1.7436
H     -0.9687      3.2385      9.2190
C     15.0565      7.4136     15.3585
H      4.4123      1.8194      0.3199
C     14.0808      9.4363     11.6556
C     19.2289      9.6438     12.4258
H      7.4052      5.1579     11.5919
C     -1.8233     10.2879     -1.2011
H      0.7342     -0.6647      5.0935
C      4.3787      8.3874      4.4589
C      7.9376      7.5756      3.1708
C     20.9628      9.5360     14.1137
C     19.0847      8.4573     14.6338
C      4.5563      6.2819      6.6180
C      1.7265      4.9839      2.6201
C      6.0404      5.4369      0.1191
C      5.9039      7.7415      4.2650
C      8.0086      6.3176      0.6141
H     14.6989      9.6166     12.4581
C      4.4625      5.0942      7.2741
C      1.2791      5.2388      1.1421
H     -3.5994      8.3869      7.5854
C      6.5693      7.0970      5.2525
H      1.4483      1.2813      4.4871
H     -3.1364     15.1227     -0.0434
H     -3.5331      4.0687      2.6189
C      6.9128      5.4737      1.1578
H     -0.6230      3.4383      3.1972
O      7.8782      7.2359      5.6181
H      8.6423      8.8658     11.6678
H     21.9132      9.2911     14.3734
H      0.7810      3.0739      3.5256
H      0.7957      5.0405     -0.7966
H      4.6204      5.1258      4.0901
C     12.5797      7.3487     11.2805
H      6.2549      5.1746      6.8104
C     15.6680      6.3193     15.8417
C     -1.8861      4.7519      5.0468
C      0.4117      7.1673      5.1957
H     19.6447      8.8574     10.6859
C      1.3222      5.8608      4.6823
H      1.9649     -0.7327      1.6682
H     15.2481     10.1774     16.2706
H     -2.3096      7.9084     10.3275
C     -4.9521      6.9382      8.2606
C      4.1312      0.7028      8.3356
C      6.4832      7.8611      2.9546
C     -3.1772     10.3357      5.5561
C     -0.3211      6.3419      3.0595
C     -1.4618      6.6359      3.6533
H     -2.4356     11.9191      8.8975
H      1.7056      3.6914     -0.2977
H      5.9077      3.9757     -1.4571
H     -2.9221      3.6531      6.3368
C      1.6125      2.0138      9.3835
H     -1.9375     11.5842      6.4699
C      0.5695      5.2153      3.4743
C      5.2121      3.4514      2.4158
H      1.1415      4.9334      8.1040
C      7.3318      3.8152      9.6423
H     -2.7898     11.4987      1.0561
H     -4.8897     11.3572      6.6955
C      2.2905      6.7567      8.6919
C     -1.3606      5.7328      5.8467
C      2.3776     -0.0183      2.4231
C      1.2396      4.9900      5.8711
C      1.9975      6.7016      7.1675
C      0.8655      4.2177     -0.0738
H     -1.2168      5.8600      0.8653
H      4.0790      0.8636      2.6703
H      4.1328      0.2532      0.4890
H     -4.4665      6.5969      7.4810
H      7.3854      2.6520      7.7458
H     -2.3548     10.7470      4.9771
C     -4.4539     12.4502      0.0023
H      6.4121      0.9196      3.7618
C     -0.1890      9.5917      5.2077
C     -4.0863      7.5826      9.4474
H     -3.0789      9.6954      3.0788
C     -4.5894     11.0520      8.6235
H     -2.0934      3.4414      2.8561
H     -4.2984     10.0586      5.2116
C     -0.0939      8.0211      7.7036
C      0.4420      3.7618      5.5121
O     -3.6599      5.8588      4.1650
C     -1.6047      8.4037      5.6096
C     -6.7579     13.6622      6.9380
C      5.0598      1.4636      6.4179
C      2.3151      0.6496      6.2874
H     -5.6376     13.8038      6.8669
H      4.6629      3.1968      8.7667
H     -5.2046     12.2876     10.2035
H      0.3999     10.8441      6.4807
H     16.6230     12.7730     16.8237
H      0.2695      7.9140      8.6890
C      1.9735      5.1505      7.1615
H     -0.2628      3.9425      1.2998
C      4.1248      5.4345      5.0045
C      3.7303      2.8546      9.0069
H     20.8739     10.1944     13.3553
H      0.2060      6.7401     -0.4389
C      8.2147      7.3653     10.6276
H      2.8567      3.7907     11.3390
H     11.1918      5.7832     12.4242
C      4.1256      3.0588      4.6322
C     17.7778      9.7311     18.2082
C     -6.7673     12.1879      8.8378
C     -5.2849      9.1859      7.1883
C      5.7688      4.4577      7.5210
C     -7.4627     13.6153      8.3032
H     -1.4446      3.7708      7.5231
H     -3.6309      9.5337     -0.2986
H     -6.7745     12.0659     10.0615
H      9.6779      5.2594      0.8853
C     14.5429      9.9223     14.1998
H      3.6260      4.9634      9.8815
H     -1.2721      9.1559      3.3862
