283

C      6.9182     -3.8814     13.7154
N     11.0855     10.9334      1.3441
C      3.7281      1.5583      7.2600
C      2.6428      2.3380     15.5575
H      1.7799      0.9411     10.5116
C      7.3607      4.9215     15.2540
C      7.7809      3.4682     15.7008
C      3.4552      4.1815      5.6966
C      6.2273     -3.0450     11.4083
C      3.3482      7.5228      6.7165
C      6.2302      1.9116      4.2386
C      6.6006      9.5371      8.6447
C      0.6819      8.8303      0.8129
C      8.8555     12.1708     -0.3346
C      8.1557     13.8394      1.1426
N      0.8201      2.4220      6.1522
H      6.2350     -4.2537     11.1979
C     13.8316      6.4248      0.5399
O     -1.0861      2.9245     13.9337
C      3.3998      4.0741      7.1354
H     -0.0486      7.5852     -2.3051
H      7.6476     13.8277      2.0221
C      2.8816      6.3717      4.6787
C      3.5022     -2.3591     16.2985
H     10.4508      3.0594      6.2522
H      5.3313      7.3469     13.9531
C      3.9019     -3.6922     16.0203
H      6.5644      7.4279      9.6474
H      6.2024     -2.2045     10.4963
H      3.9382      5.6949      8.3260
H     12.1635      5.1633      6.5895
C      3.2175      2.7737      7.8275
H      7.0071      1.1138      4.5844
C      7.7313     12.2764      8.4659
C      8.9808     10.9533     -1.1358
C      6.7257      5.7337      9.9097
H      1.3920     -0.8910      9.0429
H      2.4101      5.8288      9.3210
C      6.6446      2.9904     16.1231
H      4.9088      4.0640      8.7794
H      4.0374     -1.5621      9.4375
H      2.8397      7.6966      9.5129
C      4.0651     -1.9920     17.6356
C     10.0699      8.5525      5.0601
O      1.9160      8.7655      4.9787
C     11.4939      7.8137      7.1280
C      8.9129      7.9740     12.1053
C      7.4569     -5.3023     12.9782
C      6.5413      6.6203     12.2480
H      5.3453      3.8658     14.6100
H      6.4555      3.8622     12.3126
H      4.7053     -2.7270     14.4298
H      2.0756     -1.4894     18.7662
H      8.4140      7.7074      8.6840
C      7.9680      2.7715      8.5118
H      1.1381      1.6687     13.9875
C      7.0807      5.8585     11.1727
C      7.9350      5.7418     16.3156
H      8.5810      7.6306     15.9322
C     11.8562      6.5125      5.3470
H      4.2256      8.6809      8.5082
H      3.4733     -1.4798     15.5268
H      3.3351      4.5452     10.3325
H     15.9521      5.7177      0.8695
C      9.6302     11.4918      7.2677
C      6.8897      4.8550      8.8032
C      3.0914      7.7861      5.2651
C      9.2671     14.5055      0.9015
C      5.4819      4.3704     12.5016
C      4.4626     -3.8227     14.7913
H      9.2031      8.0024      5.4863
H      9.3323      8.4219      3.1374
H      3.4662      0.7212     10.4859
H      7.4483      9.6876      9.3277
H      4.8846      0.8788      5.8309
C     -0.3618      3.2599      8.1341
H      8.4177     -3.7413     15.4735
C      0.3545      8.7943     -0.6811
C      1.7873      2.2364      8.4026
H     10.2935      9.8317     -2.0411
C     12.4401      6.4169      1.3931
H      5.9327      7.3167     11.8383
H     11.1083      2.1789      5.0645
H      8.6658      7.4449      6.9266
C     10.1195      7.4069     12.8262
O      2.6340     10.4468      0.8987
C      7.2336      8.6723      7.6359
C      4.2144      8.6923      7.4788
C      3.4621      1.3234      9.5556
C      3.2716      0.5190     18.1397
H      7.8207     -2.2054     14.2111
H      6.9220      0.6509      6.7299
H     10.2765      5.0516      6.0439
H      4.9945      6.8072      8.2235
C      4.2458      3.5285     16.4102
C     10.6360      8.5509      0.9803
C     -1.7684      6.7686     -0.9136
H      8.3346      1.7981      8.8244
C      5.5635      2.7271      5.5337
H      2.2581     -2.3567      8.3351
H      5.1013     -1.0615     18.4316
C      2.1892     -1.2499      8.4170
C      4.5777     11.0920      7.5414
C     11.3459      4.8125      3.7382
C      4.0104     10.0559      6.7902
C      2.9450      3.5707     15.9788
C      5.7015      7.0550      9.3408
H      1.9831     -1.3529      7.3298
H      2.2312      7.7183      0.0555
H      0.2110     11.8819      1.9606
H      9.9003     12.4944     -0.1379
H     16.0185      3.1963      0.3847
O      5.8449      6.7566      6.3583
C      0.8664      7.9410      4.5955
H      5.0661     11.8078      6.8743
C     10.3448      8.6241      3.5687
C     11.0013      7.4109      2.9853
H      8.6325     10.3473      8.6755
H      8.4614      3.1407     14.9540
C     10.3474      8.1739      7.9052
H      9.7928     15.1765      1.5744
H      2.5504      2.8868      4.9900
H     10.8318     11.4499     -1.4765
H      5.1256      5.2626     10.7749
C      3.0771      0.9311     15.2581
C     -0.0060      8.6404      2.1423
O      4.5912      4.5803     11.3182
O      7.3394      3.5915     10.6943
C     -0.1044      3.2699     14.5619
C     13.2277      3.7686      4.2184
C      7.0679     10.8600      6.8249
H      8.4632      9.7524     -1.3736
H      2.9461     10.3029      6.9464
H     -0.7847      9.2547      4.1692
H     -1.6535      8.8106     -2.1893
O      0.2438     10.0594      5.4707
C      6.0254     10.9107      8.1349
C     13.8901      7.0027      6.8712
C      1.7050      7.5886      0.8646
H      2.4025      8.3028      2.4732
C      0.7760      7.5929      3.0873
H      7.8989     13.2573      8.0075
C      2.0950      0.1957     17.4526
C      0.4884      2.5516      7.4321
C     10.2518     10.7729      6.3232
C     10.6140      3.1707      5.1873
C      4.2005     -0.6405     17.8412
C      2.7912      3.6025      9.8907
C      0.9500      2.3055     14.8911
C     11.8302      7.6755      1.7579
C      3.6682     -0.9659      8.4811
N      1.5255     -0.7621     18.3501
C      2.6300      0.8505     13.7140
O      4.9237      6.1848     13.7986
C      9.4576      6.4716     13.7949
H      5.8328      9.9143      5.3289
C     10.9595      4.3130      2.5727
C     10.2966      7.8958      9.2096
H      8.8631      3.5406      8.4900
H      2.1447     -0.1088      6.8956
H      8.0331      9.1060      5.8236
C     10.7141     10.1535      0.4419
H      4.6426      7.2352      9.8069
H      1.2629      7.2326      9.4741
H     -0.3651      9.6398      2.5405
H      1.9249      8.4497     -2.1131
H      3.0293     -0.2761     13.6089
H      0.1362      3.9462      9.0890
C      2.3143      7.2715      2.4707
H      1.7674      0.8609     13.0208
C      1.5345      8.7972     -1.2566
C      6.3586     -2.9315     12.7480
H      7.5950      5.2653     11.8398
C     10.3346     10.5410     -0.9924
H      0.7238     -1.3466     17.9961
C      4.1811      8.5337      4.3952
C      7.6772      7.2739     15.7119
C      8.3166     -3.3279     14.2300
C      5.7813     -4.5335     14.6710
C      4.3613      6.3000      6.5527
C     15.2949      4.8739      2.8149
C      6.0932      5.6134     13.1832
C      5.3741      7.5680      4.0437
C      7.8138      6.7922     14.1812
H      2.4589      9.3715     -0.9707
C      4.3889      5.1192      7.5531
O      0.6941     11.1008      1.7218
C     15.0021      5.1988      1.0818
H      9.9275      9.1656      7.7827
C      6.1644      7.6887      5.2398
H     -0.2499      1.8088      6.0178
H      9.7778     14.5715     -0.1078
H     10.5236      5.2327      1.9851
C      7.1354      5.4247     14.0466
H     13.1130      3.1802      3.2693
O      7.4825      7.5567      4.9330
H      7.5092      8.2025     10.8743
H     10.2164      8.6181      1.8573
H     14.4126      3.4762     -0.6424
H      4.8172      5.4788      4.3491
C     -0.7444      8.0926     -1.6326
H      5.8547      4.0361      7.4461
C      3.0501      6.2828      3.1261
C     11.8001      4.0502      4.8531
C     13.4971      6.6643      5.5659
H      5.7152      8.8517      9.1377
H      1.9647      1.4501      6.1957
C      1.5495      5.6037      4.9782
H      1.4279     -0.3278     15.3331
C      7.8898      7.3841      7.6989
C      3.9475      0.5563      8.3913
C      6.3299      7.9057      2.9590
C      9.8873     10.0112      5.1782
C      0.2219      6.1593      3.0998
C     11.6331      6.3111      3.8159
H      9.9319     11.9968      8.1807
H     16.2847      4.4214     -0.5804
H      3.5826     -4.2203     14.1774
H      5.1185      3.2458     12.5778
H      9.6079      3.4900      4.5434
C      2.0222      1.3601      9.4997
H     11.2968     10.7025      6.4240
C     14.0356      5.1445      3.6416
C      5.4514      3.8057     15.7700
H      1.2602      4.8813      7.7437
H      5.2117      8.1444      7.0795
C      7.2115      3.5830      9.4771
H     11.1745     11.8662      0.7196
H      6.4394     11.2804      5.9832
C      2.2680      6.7830      8.9720
C     11.3153      5.3163      5.9666
C      2.0437      0.0685     16.1283
C      1.8797      4.5335      5.8000
C      2.3804      6.5549      7.3734
C     15.2692      4.0634      0.0362
H     11.8481      5.5392      1.1659
H      4.1204      0.4226     15.3864
H      9.3839      9.8843      9.6158
H      3.3878      1.5853     13.2866
H      7.4384      6.4433      7.2827
H      7.5871      2.6944      7.5323
H     10.1039     10.5961      4.2190
C      7.7694     12.7247      0.2952
H      5.3053      1.1536      3.7357
C     -0.4397      8.8320      5.0904
C      9.5012      8.8114      9.9444
H      9.0979     -3.9830     13.8185
C      8.3012     11.0139      7.6625
H     10.3175      3.3746      2.3744
H      8.8412     10.2215      4.9685
C     12.7483      7.6160      7.7383
C      1.4097      3.1672      5.2062
O      9.0169      5.6877     17.0572
C     -1.4961      7.8954      5.6923
C      6.0507      1.3865      7.3928
C      5.0090      1.8150      6.5257
C      2.8750      0.6888      6.5590
H      5.0619      2.9497      9.6402
H      8.0906     12.4105      9.6759
H      0.3805      9.5770      6.4624
H      3.5468      1.3205     17.6169
H     12.8714      7.4689      9.0564
C      2.0664      5.1036      7.2299
H      0.0027      4.3564     14.9940
C      4.1720      5.5045      5.2823
C      3.8659      2.8738      9.3037
H      6.6650     12.4226     -0.0277
C      8.6425      8.4148     10.9280
H      2.1799      3.8013     10.8128
H      7.9183      5.0660      8.0624
H     -1.3799      5.9189     -0.3844
C      4.4283      3.3904      4.8281
C      4.6068      9.8108      5.3445
C      6.3883     12.1624      8.7251
C      7.1048      9.3964      6.3690
C      5.5965      4.7618      8.2060
C      5.5692      0.3769      8.2246
H     -1.4601      3.4364      7.3791
H      6.2867     -1.9210     13.0152
H      9.4760      5.4390     13.6061
C      1.4927     10.0660      1.0695
H      2.0323      3.9998      9.2157
H     10.9980      9.5834      3.2623
283

C     -6.1484     -3.9305     13.7254
N     -1.9489     23.5070      1.2268
C      3.8764     14.4408      7.3206
C    -10.6327      2.3363     15.5702
H      1.4006     14.0134     10.1962
C     -5.2270      4.8231     15.5785
C     -5.1183      3.4632     16.0525
C      3.4870     17.1599      5.6417
C     -6.6250     -2.9895     11.2194
C      3.4508      7.3866      6.5853
C      6.1572     14.9201      4.2260
C      6.5884      9.8145      8.6353
C      0.8807     21.7115      0.8743
C     -3.6405     25.2893     -0.2789
C     -4.6219     26.7335      1.2601
N      0.4180     15.4537      6.0933
H     -7.0702     -3.7501     10.5820
C      1.1634      6.1412      0.5208
O    -13.8154      3.0663     13.9064
C      3.3567     17.1671      7.1679
H     -0.3712     20.5036     -2.3788
H     -5.5008     27.0951      2.0085
C      2.8840     19.4919      4.6565
C     -9.5757     -2.1662     16.3232
H     -2.6653      3.3840      6.1421
H      5.5133     18.9648     15.1356
C     -9.2701     -3.5479     16.1008
H      5.8728     20.7726      9.0753
H     -6.6863     -2.1576     10.3337
H      5.9176     16.4728      6.0224
H      4.0331     18.4717      8.9056
H     -0.9898      5.5020      6.6379
C      3.3462     15.7697      7.8707
H     -4.1369     23.9928     -2.3780
H      7.0048     14.7889      5.0349
C      7.8078     12.1823      8.6993
C     -3.7149     24.2512     -1.3424
C      6.6697     18.7896     10.0258
H      1.9381     12.3527      8.9267
H      1.9068     18.8322      9.0092
C     -6.3702      2.9402     16.2626
H      5.4801     16.1041      8.4613
H      3.7870     11.7325      9.3992
H      2.9576     20.1145      9.3222
C     -9.1354     -1.7169     17.5991
C     -3.1189     21.6934      4.9384
O      1.9392      8.6744      5.1753
C     -1.3827      8.2462      6.9565
C     -4.2178      7.7940     12.4785
C     -5.4240     -5.2520     13.2000
C      6.5107     19.7366     12.3452
H     -7.6318      4.0526     14.6712
H      6.6005     16.8406     12.0670
H     -8.1795     -2.2850     14.7254
H    -11.3319     -0.9869     19.2916
H      8.6343      7.3225      8.6288
C      8.1927     15.4722      8.7534
H    -12.3474      1.3889     15.3680
C      7.2346     19.0710     11.2306
C     -4.8638      5.8772     16.2521
H     -4.8751      8.2080     15.9110
C     -1.1415      6.7469      5.0251
H      3.8978      8.5524      8.5581
H    -10.4754     -1.1562     16.0373
H      4.1454     19.2934      3.1612
H      3.4114     17.8195     10.0072
H      2.8316      5.8325      1.0101
C     -3.2073     24.1851      7.3295
C      7.0875     17.7362      9.2576
C      3.1638      7.8461      5.1904
C     -3.7802     27.6621      0.9702
C      5.5788     17.4808     12.3601
C     -8.3152     -3.2634     14.9050
H     -3.8343     21.0873      5.7309
H     -3.8125     21.6924      2.8030
H      3.6284     13.9061     10.5696
H      7.3863     10.2014      9.0287
H      5.4416     13.5772      5.8581
C     -0.4132     16.2510      8.1673
H     -4.4459     -3.3942     14.7936
C      0.6662     21.3842     -0.5449
C      1.7148     15.4729      8.2623
H     -2.3506     19.5932     -2.1260
H     -2.7380     23.1855     -2.1566
C     -0.3741      6.2298      1.1371
H      5.9504     20.4576     11.7496
H     -1.7565      2.0055      5.2050
H      8.8994      7.6606      7.1318
C     -2.8943      7.2926     12.9033
O      2.6557     23.0816      0.9254
C      7.1215      8.7896      7.6877
C      4.1189      8.4788      7.4231
C      3.3162     14.2545      9.5016
C     -9.6604      0.5308     17.8642
H     -4.9931     -1.9433     14.1084
H      7.1556     13.6766      6.9295
H     -2.7374      5.3874      5.8303
H      4.8589     19.7447      8.7311
C     -8.7958      3.4390     16.3519
C     -2.0694     21.2259      0.8099
C     -1.7265     19.6272     -1.1211
H      8.1445     14.8778      9.6541
C      5.5389     15.6252      5.3922
H      2.3095     10.4902      8.5924
C      2.3208     11.5871      8.3667
C      4.4796     11.1773      7.3802
C     -2.0972      4.9057      3.5277
C      3.7423      9.7102      6.9515
C     -9.9924      3.5343     15.6226
C      5.5081     19.8246      9.6091
H      2.1472     11.5617      7.2053
H      2.7947     20.2428      0.4093
H      1.1210     24.8737      1.1750
H     -3.7509      6.2874     17.8022
H     -2.9026     25.6552      0.1720
H      2.9077      3.1344      0.4205
O      5.7016     19.8223      6.5436
C      0.6745      8.1704      4.5176
H      4.5564     11.8872      6.4278
C     -3.0351     21.3885      3.4901
C     -2.2838     20.3774      2.9059
H      8.4437     10.4296      8.4823
H     -4.3010      3.2340     16.9254
C     -2.1687      8.7460      8.1851
H      1.7607     15.7177      4.6501
H     -1.6155     23.6887     -0.9981
H      4.7757     18.9972     11.7235
C     -9.9682      1.0684     15.2219
C     -0.0168     21.5281      2.0161
O      4.7684     18.1305     11.2591
O      7.7972     16.2994     10.9612
C    -12.7264      3.2620     14.4717
C      0.2352      4.0117      4.2881
C      7.1182     10.8504      6.8426
H     -4.7833     23.4858     -1.1527
H      2.7294     10.3251      6.7954
H     -0.9687     22.4693      3.7720
H     -1.3647     21.7894     -1.5929
O     -0.0244     23.2277      5.3655
C      5.9335     11.0467      7.9126
C      0.7952      7.0575      6.6370
C      1.8590     20.4436      1.0372
H    -10.1983     -4.5601     15.9625
C      0.8116      7.6885      2.8907
H      8.0856     13.1696      8.7281
C    -10.8505      0.0091     17.4113
C      0.5631     15.7739      7.3912
C     -2.6352     23.5644      6.3165
C     -1.8730      3.1205      5.3405
C     -8.5197     -0.4948     17.6577
C      2.9465     16.8135      9.9379
C    -11.8742      2.1878     14.9792
C     -1.2067     20.6830      1.6997
C      3.7770     11.9695      8.3833
N    -11.5281     -0.5635     18.4137
C     -9.8644      0.8361     13.6469
O      4.9851     19.1074     14.1845
C     -3.5530      6.2413     13.8445
H      5.7122     22.6176      5.7850
C     -2.3768      4.2097      2.3970
C     -2.2083      8.1767      9.3331
H      9.0947     15.7129      8.2362
H      2.5823     13.0359      6.7691
H      7.7829      8.7747      5.7229
C     -2.3691     22.6671      0.3280
H      4.9942     20.2004     10.4010
H      0.9801     20.1844      9.4188
H     -0.4425     22.5381      2.3546
H      0.7743     21.7746     -2.1866
H    -10.4992     -0.0158     13.6080
H     -0.1352     16.3367      9.1901
C      2.1517     20.3591      2.5054
H    -10.5051      1.3288     13.0745
C      1.5453     21.8783     -1.4058
C     -6.8467     -2.9912     12.5787
H      8.0497     18.4197     11.3111
C     -2.6015     23.2510     -0.9983
H    -11.9702     -1.3445     17.8794
C      4.1442     21.6998      4.5674
C     -5.3287      7.2442     15.9001
C     -4.5972     -3.0328     13.8255
C     -7.1129     -4.2972     14.8286
C      4.4869     19.1818      6.5439
C      2.2997      4.9368      2.4719
C      6.0850     18.5145     13.3901
C      5.3395     20.7639      4.1620
C     -4.9625      6.7938     14.1950
H      2.2391     22.7081     -0.8975
C      4.2731     18.0575      7.7969
O      0.6500     24.1028      0.8638
C      2.2035      5.0846      1.0396
H     -3.0536      9.2961      7.8724
C      6.1117     20.3068      5.1522
H     -0.2393     14.8923      5.6217
H     -3.3116     27.2382      0.1518
H     -3.2948      3.7193      1.9205
C      7.3246     18.3391     14.2490
H     -0.1864      3.3365      3.3504
O      7.3814     20.1210      5.1704
H     -5.0053      9.0052     10.8452
H     -2.9395     21.3236      1.3678
H      1.4434      3.4693     -0.4138
C     -0.8122     20.7431     -1.4203
H      6.1798     16.9600      7.3530
C      3.0494     19.1854      3.0787
C     -1.1025      4.2777      4.6442
C      0.5109      6.9338      5.1164
H      6.1084      9.2372      9.2798
H      2.1071     14.6870      5.9706
C      1.4946     18.7315      4.7188
H    -11.7076     -0.1791     15.4699
H     -1.7354      7.1690      9.5112
C      7.9196      7.4748      7.7682
C      3.9471     13.4307      8.4139
C      6.2485     20.6282      2.9823
C     -3.4648     23.2418      5.1336
C     -0.0958      6.3699      3.0011
C     -1.4744      6.4385      3.5801
H     -2.7736     25.0146      8.0183
H      3.0922      4.1952     -0.8731
H     -8.8003     -3.9476     14.2523
H      5.1642     16.4213     12.7483
H     -3.0173      3.0388      4.6897
C      1.9884     14.5042      9.2692
H     -1.6052     23.7777      6.3031
C      1.0080      5.2632      3.4743
C     -7.6246      3.4102     15.6838
H      1.2001     17.8955      7.5622
H      5.2359      8.3186      7.4031
C      7.5848     16.4664      9.8061
H     -1.2698     24.1524      0.6603
H      6.8396     11.4236      6.0103
C      2.0137     19.7444      8.7808
C     -1.3697      5.4415      5.7023
C    -10.8371      0.0912     15.9311
C      1.9749     17.5684      5.6639
C      2.2380     19.5273      7.3994
C      2.4410      3.9962      0.0180
H     -1.0136      5.3632      0.6740
H     -9.0200      1.2435     15.8085
H     -4.5621      8.8358      9.2549
H     -9.0030      0.5433     13.3394
H      7.2361      6.5939      7.3672
H      7.3109     14.8329      8.0901
H     -3.5861     23.8512      4.3218
C     -4.8030     25.8347      0.1981
H      5.7532     14.0046      4.0297
C     -0.5386     21.8449      4.7988
C     -3.5241      8.7472      9.9245
H     -3.5876     -3.1438     13.3083
C      8.2736     11.1048      7.7801
H     -2.0373      3.0691      2.9710
H     -4.5999     23.2551      5.3694
C     -0.3034      7.5328      7.4769
C      1.2297     16.2965      5.2801
O     -4.1310      5.5372     17.4822
C     -1.6014     21.1906      5.3909
C      6.3017     14.0119      7.2956
C      5.3572     14.5928      6.4632
C      2.8861     13.9414      6.3556
H      4.7530     15.5527      9.6877
H      8.2040     12.2709      9.5468
C      2.1536     17.9840      7.0998
H    -12.4412      4.1853     14.8759
C      4.0026     18.5773      5.3449
C      3.7670     15.6917      9.3179
H     -5.8947     25.2920      0.1192
H      1.4732      5.6048     -0.5165
C     -4.2107      8.1812     11.2566
H      2.3939     16.3944     10.7341
H      7.8295     17.8062      8.3707
H     -1.1936     18.8719     -0.7545
C      4.2045     16.1367      5.0362
C      4.4646     22.9579      5.4436
C      6.3455     12.1145      8.7699
C      7.3843      9.4152      6.4593
C      5.7972     17.2907      8.2620
C      5.7092     13.3991      8.5091
H     -1.3311     16.6147      7.7643
H     -6.2698     -1.8961     13.0359
H     -3.4474      5.2414     13.5313
C      1.3999     23.0463      1.2812
H      1.9529     17.0634      9.4911
