286

C     19.9804      8.8449     13.5947
N     -2.2035     10.2970      1.2527
C      3.6261      1.4623      7.0657
C      2.1712      2.5024      2.1246
H    -11.3918     14.7946     10.2524
C      7.4178      5.2478      2.4819
H     -3.0295      7.3007      2.2193
C      7.5326      3.9135      3.1617
C      3.5809      4.2955      5.4690
C     19.6260     10.3039     11.3708
C     16.4281      7.3773     19.6165
C      6.3967      2.1138      4.2319
C     -6.8319      8.9726      9.2364
C     13.6437      8.7480     13.7304
C     -3.5774     12.1328     -0.7580
C     -4.3090     13.3175      1.0831
N      0.5541      2.6604      6.3925
C      0.6906      6.4678      0.7106
O     -1.2762      2.4674      1.5530
C      3.2558      4.3670      6.9119
H     13.5532      6.9054     11.1056
H     -5.0535     13.4035      2.1790
C     15.7218      6.4742     17.3991
C     16.9904     10.4865     16.2626
H     -1.5524      2.6034      5.9128
C     17.0893      8.9007     16.0652
H      4.7903      7.2750     10.4101
H     20.0716     11.2196     11.2855
H      1.9739      3.9755      9.7310
H      0.2073      5.7013      6.3811
H     -6.8964     14.6279      9.0267
C      2.9308      3.1117      7.7343
H     -3.3774     11.5518     -2.8226
H      7.1720      2.3894      5.0120
O     14.2178     10.1576     15.6525
C     -5.1736     12.5165      8.8141
H     19.0348     10.6525     12.9459
C     -3.3659     11.0666     -1.7774
C      6.3571      5.9493      9.6751
H      2.6777     -0.1875      6.4718
H      4.5726      5.5287      8.7014
C      6.4375      3.1846      3.1456
H      5.7486      3.3146      7.1940
H     18.6986     10.6828     10.6279
H     -8.8251     10.6995      9.1750
H      2.1886      7.3987      9.6057
C     17.5196     10.7719     17.3609
C     -2.7567      8.8257      5.0158
O      2.1025      8.8879      4.9825
C     -1.4266      8.1641      6.9591
C      8.5408      7.8477     11.7844
C     20.4341      7.5445     12.7727
C      6.3604      6.7069     -0.7558
H      5.2573      3.2580      1.2393
H     17.2285      8.3427     13.6030
H      2.1482     -2.1444      4.6124
H     -5.9776      6.6891      8.5012
C      7.7012      2.7695      8.5453
H      0.4255      1.6835      2.9145
C      7.0256      6.1999     10.8895
C      8.2487      6.2624      3.0787
H      8.4831      8.3601      2.6450
C     -1.0461      6.8154      5.2544
H     15.9717      9.1165     21.1913
H     16.6374     11.1648     15.4317
H      2.7196      5.6683      0.6134
C     -2.9057     11.2488      8.1065
C      6.4135      4.5891      8.9528
C     16.1442      7.7751     17.9788
C     -3.9184     14.6551      0.7790
C      5.0786      4.4552     -0.3874
C     17.5929      8.5494     14.6738
H     -3.4341      7.9949      5.1747
H      8.1286      7.6566      4.4043
H     -9.8171     13.6584     10.3043
H     -6.9161     10.0970      9.5319
H     18.8852     12.5658     17.7111
C     -0.8136      3.5918      7.9487
H     20.7562     10.1730     15.0284
C     13.2670      8.7073     12.1305
C      1.6699      2.7946      8.3613
H     11.0469      6.4596     10.8639
H     -0.9951      9.9275     -1.8542
C     -0.6142      6.6413      1.4449
H      5.4397      7.3512     -1.1006
H     -2.3107      2.4756      4.6900
H     18.3256      9.2073     12.3472
H      8.2750      6.2382      5.2073
C     10.0100      7.1828     12.6810
O     15.5543     10.1032     13.6795
C     -5.8321      8.6259      8.1327
C     16.8251      8.7027     20.2863
C     -9.7710     14.2886      9.4267
C      2.2901      0.8388      4.8632
H     -4.7759     11.2435      1.1551
H     -1.4525     10.9076      1.1152
H     -6.5105     12.7170      6.2724
H     -1.5431      5.8255      6.9686
H      3.2571      6.1287      8.8290
C      4.0945      3.5537      3.2972
C     -2.0761      8.2572      0.3687
C     11.1717      6.8299     11.7974
H      7.8165      1.9506      9.2018
C      5.2866      2.3291      4.9463
H    -10.7923     11.3078      9.4214
H     17.7947     12.3005     16.4930
C    -10.4656     11.5360      8.2584
C     -8.2744     11.1528      7.3908
C     -2.7739      5.0567      3.9523
C     16.9857      9.9819     19.3870
C      2.7116      3.6266      2.7238
C      5.2390      6.8389      9.5127
H    -11.1347     11.8487      7.6087
H     15.2297      7.9257     13.1728
H     -3.2290     13.3442     -0.9936
H     -0.0697      4.1089     -0.0919
O      5.9038      6.8702      6.6652
C      0.9007      8.3467      4.4560
H     -8.4795     11.9942      6.7165
C     -2.6443      9.2491      3.5243
C     -2.3936      7.9419      2.8842
H     -5.1132     10.1117      9.0483
H      8.1235      3.4946      3.8882
C     -2.7353      8.1717      7.6461
H     -4.0848     15.3346      1.5143
H      2.5356      4.2157      4.8681
H     -1.2601     11.3730     -1.2731
H      3.5545      3.4974     -0.0858
C      3.0571      1.2342      2.2366
C     -0.1671      8.6818      1.9527
O      3.7452      4.3815     -0.0006
O      7.5993      3.3326     10.7478
C     -0.1682      3.2493      1.7122
C      0.2378      3.8984      4.0815
C     -5.5815     10.8020      7.3472
H     -3.8095      9.9289     -1.5430
H     15.9547     10.0304     19.1789
H     -0.2790     10.1641      4.6462
H     11.9864      7.9704     10.6073
O      0.3585     10.0900      6.3841
C     -6.9774     10.9744      8.1373
C      0.8659      7.5625      6.7750
C     14.5106      7.5088     13.9111
C      0.8954      8.0867      2.9808
H     -4.6099     13.3662      8.0236
C      2.2050     -0.2145      3.9848
C      0.4060      3.2502      7.6857
C     -2.2958     10.8898      6.8107
C     -2.3449      3.2164      5.5651
C     17.8481     12.2445     17.6504
C      3.0420      4.1099     10.2009
C      0.7930      2.4646      2.1129
C     -1.6054      7.8894      1.6003
C     -9.2401     11.6208      8.3141
N      1.5519     -1.2142      4.7425
C      3.5477      1.2675      0.7779
C      9.3407      6.3107      0.6588
C     -2.7181      4.2902      2.6570
C     -3.0542      8.4309      9.0653
H      8.8382      2.9784      8.3644
H      1.4971      0.9578      6.8279
H     -4.7266      8.9233      6.1397
C     -2.3921      9.7666     -0.0793
H      5.3573      7.4443      8.4427
H      1.5447      5.8739      8.9226
H     -0.7273      9.6143      2.3571
H     14.5816      8.5800     10.7117
H      2.9391      0.9991     -0.2864
H     -0.9434      4.0786      9.0160
C     15.0249      7.3551     15.3124
H      4.1113      2.1622      0.6190
C     14.3162      9.3478     11.5471
C     19.3440      9.7030     12.5789
H      7.5425      5.1276     11.4011
C     -1.8095     10.5304     -1.3384
H      1.1915     -0.7199      5.5301
C      4.4448      8.3505      4.5648
C      7.8554      7.6932      3.1899
C     21.2839      9.6030     14.1088
C     18.9910      8.6786     14.8398
C      4.3296      6.2302      6.5088
C      2.2720      4.8353      2.3323
C      5.9297      5.7002      0.1826
C      5.6645      7.5180      4.3586
C      8.1333      6.5373      0.9008
H     15.0639     10.0427     12.3271
C      4.4145      5.2855      7.5071
C      1.7807      5.2360      0.9726
H     -3.6268      7.8510      7.0771
C      6.3682      7.0060      5.3960
H      1.3878      1.6720      4.6656
H     -3.4025     14.8936     -0.1531
H     -3.6189      4.0843      2.4266
C      7.0520      5.6551      1.1313
H     -0.6630      3.5628      3.8922
O      7.7479      6.9255      5.5468
H      8.5338      8.8724     11.4124
H     22.0828      8.6281     14.0480
H      1.2213      4.6257     -1.1567
H      4.8804      5.1905      4.3427
C     12.5371      7.6007     11.3622
H      6.4784      4.6728      7.0344
C     15.4048      6.1507     15.7786
C     -2.0115      4.5725      5.1150
C      0.7503      7.1248      5.3721
H     19.9973      9.7944     10.5770
H      3.1022      1.6874      4.6937
C      1.2841      5.8847      4.7161
H      2.7244     -0.8061      1.8440
H     14.9771     10.5620     15.7475
H     -2.2005      8.2674      9.9516
C     -5.1484      7.3711      8.2488
C     -8.7570     13.6412      8.2655
C      6.3500      7.8233      2.9087
C     -3.0132     10.1371      5.5098
C     -0.4852      6.0538      2.8535
C     -1.3171      6.6774      3.6877
H     -1.9132     11.8693      8.5441
H      1.4284      3.5624     -0.2796
H      5.3044      3.5583     -0.1289
H     -3.1367      3.3850      6.4602
C    -10.8892     14.8340      9.3218
H     -1.3130     10.7679      7.1992
C      0.5619      5.2219      3.6708
C      5.2079      3.6150      2.5327
H      1.3800      5.2581      7.7835
H     17.8110      8.8076     20.9487
C      7.1600      3.6420      9.5910
H     -3.0397     10.7926      1.7754
H     -5.5434     11.6786      6.4501
C      2.2645      6.6848      8.6952
C     -1.7381      5.7238      5.9089
C      2.3293      0.0068      2.5516
C      1.1180      4.9544      6.0167
C      2.2206      6.8238      7.2003
C      1.0266      4.3154     -0.1379
H     -1.1497      5.8235      0.7906
H      4.1246      1.3131      2.8150
H     -2.9536      9.3835      9.5645
H      4.3818      0.5265      0.4968
H     -4.6437      6.8936      7.5000
H      7.3342      2.7185      7.5726
H     -2.8235     10.9996      4.7211
C     -4.5353     12.2374      0.2853
H      6.5500      1.2337      3.4842
C     -0.1449      9.1488      5.0432
C     -4.2840      7.4989      9.2873
H     -3.5688      9.8452      3.4773
C     -4.5659     10.9935      8.4302
H     -2.3439      3.4202      3.0520
H     -4.0922      9.8897      5.7308
C     -0.1348      7.7498      7.5666
C      0.4419      3.6140      5.4709
O     -3.5896      6.1714      4.1039
C     -1.2786      8.2860      5.3834
C     -6.8534     13.7289      6.6459
C      4.9388      1.4775      6.0278
C      2.4854      0.6820      6.3234
H     -5.8400     14.2097      6.4268
H      4.8713      4.1638      9.5172
H     -4.9035     12.7360      9.8047
H      0.3400     10.8636      5.7978
H     17.3326     13.3281     17.9518
H     -0.4439      7.7429      8.7697
C      2.0322      5.1359      7.0761
H     -0.0702      4.2786      1.1985
C      4.0978      5.5555      4.9878
C      3.7996      3.5020      9.0988
H     21.2839     10.1453     13.2390
H      0.4918      6.1079     -0.1914
C      8.1739      7.1798     10.5678
H      2.3560      3.7538     11.1170
H     11.7313      6.0669     12.4147
C      4.2731      3.2131      4.6710
C     17.8497      9.6004     18.3053
C     -6.6929     12.4462      8.8264
C     -5.6943      9.4062      6.6897
C      5.8624      4.2903      7.6161
C     -7.3164     13.6285      8.3562
H     -1.5874      3.3472      7.2848
H     -3.3885      9.4754     -0.4168
H     -6.9881     12.1755      9.9142
H      9.9341      5.7461      1.2725
C     14.4979      9.9353     14.4481
H      3.3283      5.0459     10.1302
H     -1.7293      9.9827      3.2567
