288

C     19.9112     -4.0036     13.8621
N     10.9126     10.5729     14.2027
C     16.6986      1.4239     20.2360
C      2.3326     15.1066      2.2527
H      0.6927     13.9409      8.5041
C      7.8481     17.8967      2.8193
H     -3.2513     19.9616      2.3441
C      7.6097     16.5566      2.9413
C     16.1208      4.1869     18.4817
C     19.7181     -2.6499     11.6234
C      3.2447      7.2821      7.0136
C      6.1307     15.1396      4.2166
C      6.5037      9.5125      8.8588
C     13.8234      8.7054     14.0025
C      9.2057     11.9785     12.5867
C      8.5185     14.1590     13.6347
N      0.4184     15.2746      5.7487
H     20.0936     -3.7352     11.3525
C     13.7612      6.4652     13.5149
O     -0.7384     15.5156      0.8005
C     16.2394      4.2106     20.0457
H     12.9500      7.2978     10.2925
H      7.5942     14.4577     13.8820
C     15.7688      6.2769     17.4339
C     16.3668     -2.4591     16.2261
H     -2.0507     15.6190      6.2077
H      5.0423     18.4572      2.1124
C     16.9696     -3.7972     16.1751
H      4.7820      7.2977      8.9180
H     19.7691     -1.4493     11.3657
H      3.8687      5.7820      8.2495
H     -0.1082     17.8478      6.3226
H      5.9190     13.9131      9.8523
C     16.3180      2.7852     20.7581
H      9.4347     11.4012     10.4867
H      7.3468     14.7179      4.4759
C      7.7268     12.3173      9.0685
C      9.7537     10.8864     11.4854
C      6.3439      6.0821     10.0547
H      1.6958     11.8579      8.9021
H      0.6840     19.5826      9.1853
C      6.2413     16.2962      3.4735
H      5.6715      3.5112      8.0799
H      3.7595     11.4146      9.2319
H      2.1920     18.8746      9.5094
C     16.9585     -2.1075     17.3477
C     -2.8855     21.5514      4.8071
O     14.9492      8.5001     17.9885
C     -1.7374     20.6118      6.9798
C      8.9140      8.1234     11.9815
C      7.9497      7.3904     12.8672
C      6.8491      6.7867     12.3259
H      6.1166     17.3581      2.3131
H      6.3626     16.4373     -0.8981
H     17.5830     -3.0795     14.9170
H     13.5838     -1.4702     17.7749
H      8.1699      7.7170      9.0436
C      7.8005      2.8841      8.8316
H      0.6450     14.1616      1.6463
C      7.2935      6.2040     11.0493
C      8.1396     18.6647      3.8672
H      8.3182     20.4479      2.3132
C     -1.0424     19.5472      5.0265
H      3.6102      8.6793      8.6826
H     15.8971     -1.3880     15.8970
H     16.9004      5.9121     15.6419
H      3.6428     17.5495      9.3268
H      2.7948     18.2947      0.9833
C     -3.4190     24.8138      7.2360
C      6.6892      5.0103      9.1115
C     16.1293      7.7227     18.0691
C      9.8534     14.8129     13.5166
C      5.8459     17.2604     -0.1711
C     17.7173     -4.0535     14.9700
H     -3.6835     20.6721      4.9606
H      7.9078     21.1698      3.8046
H      3.0674     13.9779     10.6398
H     18.1182     -0.3866     18.7480
C     -0.1956     15.5442      8.0334
H     20.7596     -2.7722     15.1292
C     13.2822      8.4148     12.0410
C      2.0644     15.3829      8.0089
H     10.9722      5.9765     10.8266
H     11.5809     10.4710     11.0759
C     12.5579      6.3271     14.1971
H      5.8879      7.4882     12.2856
H     -2.2025     15.0349      4.7435
H      7.8550      6.8821      7.2910
C     10.2342      7.6527     12.4523
O     15.5117     10.6087     14.0715
C      7.2353      8.8562      7.8248
C      3.9187      8.5437      7.5593
C      3.3770     14.2256      9.6043
C     16.3377      0.4132     17.9036
H     21.3364     -2.4750     13.5588
H      7.1076     13.4282      6.5713
H     -2.0380     18.7879      6.6413
H      3.8608      6.7889      9.7885
C      3.9480     16.2001      3.3126
C     11.1167      8.3850     13.2996
C     11.3794      6.9529     11.4775
H      8.7208      2.0927      9.1288
C      5.2263     15.3674      5.5429
H      1.9839     11.0564      7.4155
H     17.9114      0.0771     16.8676
C      2.2971     11.8981      7.9507
C      4.6165     10.8783      7.7211
C     -2.1874     17.9208      3.7858
C      3.9071      9.8267      6.9024
C      2.6874     16.4792      2.6020
C      5.0205      6.8825      9.9252
H      2.0599     12.6926      7.2168
H     15.3856      7.3154     12.8994
H     13.4137     12.0789     13.4717
H      8.1065     20.7645      5.6834
H     10.2344     12.3277     12.9075
H      1.8927     16.6588     -0.9688
O      5.6273     19.9716      6.7826
C     13.7488      8.0946     17.4702
H      4.3190     11.2248      6.6864
C     -2.7554     21.6490      3.4014
C     -2.1924     20.4732      2.8686
H      8.7534     10.5543      8.5630
H      7.7787     15.9010      2.1052
C     -2.7901     20.6527      7.8357
H     10.3716     15.5257     14.3597
H      1.6989     15.8879      4.2046
H     11.5343     11.6339     12.3931
H      4.8389     17.3369     -1.7919
C     15.5807      0.4906     14.9573
C     12.7058      8.4784     14.9876
O      4.5925     17.7154     -0.6957
O      8.2013      4.0802     10.8116
C      0.0073     16.2543      1.3322
C     -0.0592     16.8747      3.8744
C      7.0188     10.9536      6.8679
H      9.2361     10.0591     12.0184
H      2.9960      9.9151      6.6623
H     -0.7968     22.5203      4.5372
H     12.1465      9.0137     10.4825
O     -0.1810     22.7336      6.3889
C      6.0168     10.9146      7.9612
C      0.5769     20.1645      6.7944
C     14.8412      7.6635     13.8473
H     15.8891      8.2635     16.0445
C     13.6441      7.6369     15.9540
H      7.7337     13.2681      8.5419
C     14.9568      0.0554     17.1694
C      0.8503     15.5635      7.1083
C     -2.6380     23.8722      6.5092
C     -2.2839     15.9637      5.2199
C     17.4099     -0.5786     17.7513
C      2.9684     16.8098      9.9467
C      0.8672     14.9360      2.2792
C     11.4466      7.6488     14.5714
C      3.7614     11.8896      8.3297
N     14.0669     -0.5645     18.1527
C     15.6070      0.4322     13.4509
O      5.2815     19.1110      1.1946
C      9.8923     19.4380      0.2070
H      5.8899     23.1124      5.2697
C     -2.4843     17.0802      2.6727
C     -2.7292     20.6312      9.3517
H      8.0083      3.6034      8.0349
H     14.8532      0.9716     19.2520
H      6.8770      8.6397      5.7219
C     11.2945      9.8911     13.2273
H      4.9596      7.8433     10.4734
H      1.7493     20.4717      9.5078
H     12.3302      9.4317     15.6326
H     14.4176      8.9200     10.2186
H     15.2302     -0.3179     12.9576
H      0.1742     15.8275      9.0499
C     15.1457      7.5896     15.4447
H     15.5020      1.3602     12.8691
C     14.3036      9.0948     11.3487
C     19.4803     -2.9414     12.9669
H      8.4856      6.1075     10.8993
C     11.1369     10.7733     12.1196
H     14.5752     -1.0904     19.0445
C      4.4271     21.3859      4.7187
C      7.8458     20.0531      3.2867
C     21.2092     -3.2328     14.3505
C     19.1807     -4.3291     15.0528
C      4.3591      6.2028      6.7043
C      1.9757     17.8732      2.4930
C      6.3889     18.6992      0.3677
C      5.7247     20.5060      4.4182
C      8.6072     19.4616      0.7351
H     14.9806      9.7476     11.6914
C      4.5212      5.1111      7.5725
O     13.4104     10.8618     13.4129
C      1.7547     18.2701      0.9392
C      6.3237     20.3996      5.6874
H      0.4224     14.3294      5.4774
H     -2.7916     17.7790      1.6973
C      7.5990     18.4743      1.3946
H      0.2775     15.8357      3.3459
O      7.5856     19.9667      5.8870
H     -5.4719     20.9332     10.3977
H     21.8723     -3.9314     14.5556
H      1.9990     16.2387      0.5890
H      4.6259      5.6783      4.4813
C     12.2803      7.9098     10.8900
H      6.3349      4.9860      7.1336
C     15.6885      6.2630     15.8504
C     -1.4485     17.1811      4.7359
C      0.5852     19.8108      5.3017
H      5.5561      8.5658      8.9540
H      3.2445     15.1339      5.2264
C     14.3126      5.7256     17.6714
H     13.7557     -0.4314     15.5034
H     -2.6017     19.6143      9.7062
C      7.6663      7.5784      8.1843
C      4.2192     13.3901      8.5091
C      6.3203     20.4861      3.0632
C     -3.3138     22.9014      5.3996
C     -0.1340     19.2466      2.9513
C     -1.5040     19.2831      3.6748
H     -2.5321     25.1496      7.7777
H      0.5801     16.8864      0.0549
H     16.9663     -4.3432     14.0626
H      5.1181     16.9771      0.7069
H     -3.2456     16.1674      4.7656
C      1.8662     14.2435      8.8522
H     -1.6713     24.4216      6.5282
C      0.6946     18.1137      3.5242
C      5.1411     17.0218      3.0433
H      0.8322     17.5834      7.6660
H      4.9032      8.4314      7.2108
C      7.4594      3.7694      9.8260
H     11.4708     11.3872     14.1475
H      6.4134     11.5003      6.0429
C      1.8397     19.6452      8.9846
C     -1.1422     18.4620      6.0571
C     14.7410     -0.2450     15.8396
C     14.5506      4.5141     18.4776
C      2.0474     19.5977      7.4315
C      1.6546     17.0420      0.0046
H     16.7607     -0.0306     15.0859
H     -4.1498     22.2950      8.8714
H     16.7326      0.6391     12.8275
H      6.7310      6.7715      8.5742
H      6.9739      2.3176      8.4531
H     -3.6023     23.5641      4.5356
C      8.1738     12.8847     12.8936
H      5.8056     14.4537      3.3022
C     -0.2541     22.0095      5.1883
C     -3.7531     21.4984      9.6330
H     -3.7834     21.8976      3.0194
C      8.2993     11.3522      8.0337
H     -3.0772     16.2716      2.4784
H     -4.4791     23.1420      5.5793
C     -0.3507     20.7247      7.6231
C      1.0384     16.1561      4.9204
O      8.9329     18.3444      4.8652
C     -1.5653     20.9484      5.5827
C      6.4166     14.1710      7.2605
C      5.1988     14.5512      6.6447
C     15.8833      0.8218     19.2523
H      4.8277     15.5860      9.6111
H      7.5846     12.6569     10.3995
H     -0.4141     22.4698      7.2660
H     16.6920      1.2767     17.4207
H     -0.3144     20.7937      8.6697
C      1.8785     17.7156      7.1900
H     -0.2854     17.1677      2.0889
C      3.8714      5.5585      5.2349
C      3.8390     15.6915      9.4675
H      7.1040     12.4511     12.8060
H     13.6059      6.7309     12.4947
C     -4.4838     21.3377     10.7926
H      3.0757     17.0933     11.0748
H      7.6426      5.3704      8.6867
H     12.1783      6.4168     12.1323
C      3.9142     16.0601      4.9615
C      4.6909     22.5824      5.4211
C      6.3148     11.9809      8.7886
C      7.2793      9.3577      6.6280
C      5.9459      4.6231      8.0356
C      5.7309     13.5381      8.7958
H     -1.3714     15.2171      7.7732
H     19.4323     -2.1673     13.7261
H      5.9569     11.4319      9.6967
H     10.6730     19.5757      1.0768
C     14.4162     10.1722     13.6699
H      1.8473     16.6133      9.6323
H     -2.4756     22.2062      2.6817
288

C     19.9447     -4.0396     13.8816
N     10.9226     10.5498     14.4162
C     16.8146      1.5093     20.1179
C      2.3118     15.0242      2.3014
H      0.7479     13.8730      9.0397
C      7.7793     17.8518      2.7244
H     -3.3028     20.2494      2.5630
C      7.6241     16.4043      2.9809
C     16.2189      4.3154     18.5484
C     19.7642     -2.6334     11.7311
C      3.3609      7.3487      6.7723
C      5.9794     15.2147      4.2395
C      6.5024      9.6770      8.8685
C     13.8898      8.7109     14.0565
C      9.1173     11.9146     12.4719
C      8.5559     14.1632     13.6051
N      0.4563     15.1708      5.7760
H     19.7200     -3.3486     10.8824
C     13.8890      6.5665     13.4236
O     -0.7228     15.5158      0.8202
C     16.3961      4.1904     19.9799
H     13.1269      7.5132     10.4289
H      7.6109     14.4399     14.3714
C     15.7389      6.2639     17.5544
C     16.4189     -2.4914     16.2655
H     -2.4390     15.7763      6.4086
H      5.5101     18.8379      2.0829
C     16.9545     -3.9420     16.2107
H      4.8676      7.4060      8.7981
H     19.4491     -1.5566     11.3281
H      4.2737      5.5650      8.7128
H     -0.4740     17.9046      6.5825
H      5.7305     13.8994      9.7923
C     16.4503      2.8267     20.7601
H      9.5287     11.1188     10.2430
H      6.7584     14.7348      4.7570
C      7.7540     12.1785      9.0949
C      9.6147     10.9707     11.5416
C      6.2863      6.2002     10.1000
H      1.7560     12.3400      8.8467
H      0.8241     19.1496      8.6739
C      6.1601     16.3785      3.4492
H      5.8397      3.5745      8.0235
H      3.7651     11.5368      9.4045
H      2.6346     18.9754      9.3784
C     16.8990     -2.0741     17.5296
C     -2.9064     21.5077      4.9571
O     14.9999      8.6596     17.9574
C     -1.5300     20.6033      7.1781
C      8.8951      8.0156     11.9816
C      7.9687      7.4763     12.8767
C      6.8939      6.7927     12.3083
H      5.4967     17.3932      2.2765
H      6.5982     16.9084     -0.7580
H     17.9006     -2.8496     14.7842
H     13.2992     -1.3050     17.9029
H      8.1434      8.0383      8.9467
C      7.7317      2.8706      8.7020
H      0.5793     14.2799      1.3263
C      7.1996      6.1789     11.0599
C      8.1488     18.6219      4.0494
H      8.1763     20.1674      2.2474
C     -0.9709     19.5014      5.1168
H      3.4749      8.4964      8.5839
H     15.8428     -1.4928     15.8923
H     16.7035      6.3487     15.3223
H      3.4661     17.8356      9.4480
H      2.8924     18.6204      0.7732
C     -3.3830     24.8007      7.1549
C      6.7575      5.0968      9.0956
C     16.1182      7.6968     18.1482
C      9.7127     14.8252     13.3990
C      5.9486     17.3289     -0.0231
C     17.7353     -3.9929     14.9573
H     -3.3494     20.6231      4.9999
H      7.9594     21.0200      4.0975
H      2.9910     14.0399     10.8677
H      7.5131      9.7296      9.4877
H     17.9447     -0.5873     18.7629
C     -0.1476     15.5695      8.0145
H     20.7763     -2.4354     15.1100
C     13.3227      8.2712     11.9625
C      2.1043     15.3448      8.0158
H     11.1378      6.2421     10.6784
H     11.8387     10.4117     11.3272
C     12.5650      6.2483     14.2839
H      6.2399      7.7983     12.0061
H     -1.7535     15.0185      4.5512
H      8.0713      6.8917      7.4277
C     10.2895      7.5994     12.2584
O     15.5289     10.6943     14.0262
C      7.0933      8.8046      7.8365
C      3.8875      8.5615      7.5802
C      3.1883     14.2964      9.7146
C     16.4661      0.3499     18.0352
H     21.7283     -2.5568     13.6581
H      7.4247     13.5443      6.5563
H     -2.3055     18.4959      6.4660
H      3.7620      6.8119      9.8473
C      3.9666     16.1667      3.2087
C     11.0663      8.4876     13.1635
C     11.2984      7.0170     11.4474
H      8.4292      2.1082      9.3704
C      5.2179     15.5091      5.5070
H      1.8312     10.9521      7.3247
H     17.6339      0.1286     17.1294
C      2.1568     11.8128      7.8088
C      4.5652     10.9214      7.6858
C     -2.1848     17.9156      3.6156
C      3.8145      9.8301      6.9021
C      2.6380     16.3946      2.7050
C      5.0013      6.9793      9.8127
H      2.2536     12.8154      6.9302
H     15.6063      7.7339     13.2086
H     13.0045     11.7730     13.3888
H      8.0686     20.5600      5.3158
H      9.8860     12.1701     13.1577
H      1.9702     16.7925     -0.9503
O      5.6164     19.9235      6.6915
C     13.8471      8.1096     17.3819
H      4.3965     11.3572      6.7318
C     -2.7483     21.7155      3.3698
C     -2.2375     20.3770      2.8196
H      8.7717     10.5212      8.4419
H      7.6387     15.5170      2.2988
C     -2.7097     20.7935      7.9018
H     10.3929     15.0772     14.2960
H      1.5459     15.3584      4.1648
H     11.5553     11.6716     12.1956
H      4.4110     16.9598     -1.2871
C     15.8559      0.7012     14.9643
C     12.8164      8.3913     15.0056
O      4.6260     17.7137     -0.6860
O      8.1566      4.0138     10.8185
C      0.0435     16.3245      1.3301
C     -0.0942     16.8850      3.8307
C      6.9323     10.9523      6.8335
H      8.8662     10.0585     11.4807
H      2.9475     10.3173      6.3526
H     -0.7354     22.4332      4.2527
H     12.2256      8.9312     10.3632
O     -0.1160     22.6894      6.3759
C      5.9765     10.7908      7.9815
C      0.6716     20.1473      6.8279
C     14.7819      7.6474     13.9018
H     15.6053      8.4456     15.8350
C     13.6860      7.6904     15.9774
H      8.0394     13.1800      8.5992
C     15.0647     -0.0298     17.2883
C      0.8336     15.5251      7.0715
C     -2.6875     23.8996      6.5162
C     -2.3332     15.9570      5.3208
C     17.4041     -0.6594     17.7963
C      2.9629     16.9811      9.8421
C      0.8981     15.0515      2.2267
C     11.5512      7.6919     14.4603
C      3.7875     11.9661      8.3421
N     14.0474     -0.6851     18.1231
C     15.5883      0.4368     13.4058
O      5.2228     19.1902      1.1342
C      9.9608     19.3234      0.3144
H      5.5948     22.6254      5.8847
C     -2.4611     17.2492      2.5243
C     -2.7243     20.6275      9.2928
H      8.0360      3.4457      7.9237
H     14.9445      0.9392     18.9564
H      6.7898      8.8751      6.0413
C     11.2132      9.9013     13.1028
H      5.2150      7.8282     10.4035
H      1.9973     20.6565      9.3302
H     12.6270      9.4054     15.4613
H     14.4459      8.6930     10.4436
H     15.0498     -0.3345     12.9411
H      0.2564     15.9207      8.9737
C     15.0637      7.3856     15.4333
H     15.2525      1.3934     12.8519
C     14.1959      9.0396     11.3818
C     19.5392     -3.0162     12.9464
H      8.1397      6.0293     10.7756
C     11.1249     10.7897     12.0172
H     13.8869     -0.5374     19.0317
C      4.5296     21.3405      4.6345
C      7.9126     20.1253      3.3220
C     21.1435     -3.3808     14.3176
C     19.0704     -4.3853     15.1422
C      4.3994      6.2515      6.6707
C      1.9122     17.9594      2.5199
C      6.4006     18.7488      0.4571
C      5.7130     20.3605      4.4285
C      8.5773     19.4086      0.7953
H     14.7959      9.9149     11.7845
C      4.4560      5.1436      7.6217
O     13.3338     10.8490     13.5235
C      1.7787     18.2956      0.7975
C      6.3887     20.4228      5.6693
H      0.2236     13.9845      5.6121
H     -2.7606     17.9074      1.6250
C      7.6083     18.6295      1.3652
H      0.1783     15.9445      2.9627
O      7.6207     19.9885      5.8448
H     -5.5969     21.0032     10.4828
H     21.9093     -3.9427     14.3926
H      2.2766     16.5730      0.7388
H      4.7298      5.9099      4.6607
C     12.2852      8.0105     10.8788
H      6.6215      4.9228      7.0486
C     15.7186      6.0756     15.9006
C     -1.5016     17.1246      4.7792
C      0.5272     19.7337      5.2758
H      5.6493      9.1082      9.5081
H      2.8291     15.4975      5.2322
C     14.3609      5.5928     17.6615
H     13.8463     -0.6623     15.7505
H     -2.6368     19.5582      9.5937
C      7.6149      7.6014      8.2224
C      4.0446     13.3739      8.4960
C      6.3469     20.3577      3.0862
C     -3.2041     23.0320      5.4219
C     -0.0445     19.3590      2.7839
C     -1.4947     19.2817      3.6060
H     -2.9915     25.7829      7.5678
H      0.7113     16.7958      0.0099
H     17.0713     -4.2238     14.2207
H      5.4461     17.0334      0.8720
H     -3.2826     16.0908      5.4167
C      1.9890     14.2728      8.9669
H     -1.6131     23.9259      6.4050
C      0.7098     18.1178      3.5157
C      5.0545     16.9416      3.0374
H     13.9762      4.4966     20.6854
H      4.9385      8.3525      7.5154
C      7.4230      3.7631      9.8838
H     11.1826     11.5103     14.4596
H      6.9433     11.4673      5.9221
C      1.7719     19.6402      8.8585
C     -1.3820     18.2943      5.9462
C     14.7650     -0.0815     15.9010
C     14.6375      4.4123     18.5811
C      2.0663     19.7844      7.3222
C      1.7884     17.0512      0.0263
H     16.7948      0.1288     15.3347
H     -4.0340     22.3226      8.9369
H     16.7619      0.4340     12.9217
H      6.6749      7.1021      8.3630
H      6.8259      2.2749      8.7325
H     -3.2413     23.4461      4.4415
C      8.2050     12.9128     12.8433
H      5.5660     14.2376      3.7103
C     -0.3016     21.9338      5.1497
C     -3.7133     21.4275      9.6892
H     -3.7619     21.7961      3.0154
C      8.2504     11.3115      7.9535
H     -3.0098     16.0289      2.4733
H     -4.3616     23.1379      5.4626
C     -0.2738     20.7674      7.6358
C      1.0203     16.1886      4.9825
O      9.0668     18.2387      4.7683
C     -1.4961     20.8798      5.4859
C      6.5192     14.0356      7.2034
C      5.1808     14.6775      6.6923
C     15.9370      0.7999     19.1906
H      4.8611     15.6540      9.8151
H      8.2328     12.3311      9.9819
H     -0.5856     22.1343      7.1499
H     16.8204      1.2273     17.5678
H     -0.0077     21.0295      8.5841
C     14.7265      4.8844     20.0927
H     -0.4937     17.1065      1.8234
C      3.9220      5.5711      5.3134
C      3.8128     15.6744      9.3893
H      7.3247     12.3452     12.5312
H     13.6652      6.5202     12.2898
C     -4.6065     21.2704     10.7837
H      3.1837     17.3069     10.9553
H      7.6892      5.2106      8.5689
H     11.8540      6.4347     12.1328
C      3.8066     15.9104      4.8671
C      4.6774     22.6242      5.4117
C      6.3343     11.9763      8.8751
C      7.2705      9.4002      6.7099
C      5.9665      4.6898      7.8637
C      5.7505     13.4472      8.7433
H     -1.1611     15.5963      7.4611
H     19.5944     -1.9976     13.4998
H      5.9644     11.6654      9.9376
H     10.7029     19.8349      0.9184
C     14.4663     10.0260     13.6556
H      1.9604     16.6561      9.2995
