288

C      6.9237      8.6788     13.4594
N     11.2069     -2.4786      1.4068
C      3.9061      1.4941      6.9361
C      1.8532      2.1114      2.9396
H      1.2258      0.5172      9.2068
C      7.7846      4.8792      2.4240
H      9.8673     -6.1761      2.4265
C      7.5494      3.6284      2.9447
C      3.6083      4.0698      5.7316
C      5.5653     10.6369     12.1513
C      3.3824      7.5112     19.5467
C      6.2116      2.0922      4.0591
C      6.0957     -3.1899      8.7001
C      0.8480      8.7075     13.5169
C      9.3019     -0.9626     -0.6118
C      8.3282      0.4484      0.8499
N      0.9834      2.4471      6.1686
C     13.6640     -6.7110      0.6553
O     -1.0658      2.6682      0.5835
C      3.3849      4.2248      7.2032
H      0.1124      6.9441     10.6834
H      7.3856      1.2397      0.8944
C      2.7983      6.3029     17.5062
C      3.9347     10.6556     16.2930
H     -0.9542      2.5928      5.8840
H      4.4886      5.1338      1.0230
C      4.2708      9.3875     16.1172
H      4.9232      7.1680     -4.1666
H      5.3045     10.4300     11.0271
H      4.3260      5.6566     -4.0184
H     -0.9089      4.8538      6.5658
H      5.9649      1.0193      9.6300
C      3.1583      3.1519      7.9713
H     10.2352     -1.2299     -2.4040
H      7.1529      2.2523      4.7682
O      1.3480     10.1082     15.3482
C      7.7767     -0.6548      9.0465
C      9.8229     -1.9826     -1.5484
C      6.3243      5.8180     -3.0101
H      1.6004     -0.7077      9.4331
H      2.7036      5.6940      9.5889
C      6.1509      3.2127      3.1413
H      5.9293      3.7304     -5.6638
H      3.8453     -0.5909      9.6076
H      2.7843      7.5640      9.6160
C      4.4983     11.1155     17.4733
C     10.2695     -3.9053      5.0860
O     15.0146     -4.0796      4.8720
C     -1.4056      8.0551      7.2500
C     -4.1924      7.8096     11.9897
C      7.6818      7.5038     12.9863
C      6.4525      6.9104     -0.6577
H      5.1752      5.0760      2.4792
H      4.8107      9.3517     13.7476
H      0.5483     -1.0491      5.0608
H      6.8987     -5.9309      9.0754
H      3.0044     11.0300     13.2942
C      8.2528      2.9903     -4.0575
H      0.6000      1.3474      1.3115
C      7.1138      6.1869     -1.7828
C      8.2287      5.8538      3.2987
H      8.3993      7.5861      2.2735
C     -1.1817      6.6948      5.1444
H      3.3349      8.9298     21.1238
H      3.5971     11.2296     15.4156
H      3.5944      5.9355     15.3161
H      4.3658      4.5419     10.1421
H     15.6611     -7.5181      0.7440
C      9.6667     -1.6883      7.9349
C      6.5371      4.7344     -3.7981
C      3.2155      7.7769     17.7533
C      9.3180      1.2807      1.0006
C      5.4683      4.6269     -0.3557
C      4.7831      8.8198     14.6656
H      8.4046      7.9145      4.3042
H      3.3471      0.6819     10.4252
H      6.6167     -2.7709      9.5140
C     -0.5048      3.3500      7.8284
H      8.7013      9.1796     14.8484
C      0.3005      8.4048     12.0853
C      1.7798      2.4814      8.2106
H     -1.6517      5.7910     11.1688
H     11.7234     -3.0925     -1.4413
C     12.4325     -6.6705      1.4188
H      5.8083      7.9621     -0.5131
H     -1.6370      2.1976      4.5509
C     -2.8495      7.3074     12.5396
O      2.7241     10.1972     13.8697
C      6.8650     -4.0626      7.8953
C      3.9313      8.8868     20.2574
C      3.2042      1.3612      9.5270
C      3.1001      0.2537      4.8473
H      7.7003     10.5681     14.4203
H     11.6355     -2.9425      2.2615
H      6.8318      0.6409      7.3891
H     -2.5418      5.1789      6.3323
H      4.4734      6.6911     -2.5086
C      3.8703      3.7243      3.6120
C     10.8406     -4.5955      0.3920
C     -1.6402      6.6524     11.7433
H      9.1980      3.2577     -3.3210
C      5.0982      2.4036      5.1587
H      2.0807     -1.9891      9.5633
H      5.3813     12.7373     16.6570
C      2.2662     -1.3523      8.7156
C      4.6761     -1.5576      7.2741
C     -2.0656      5.1820      3.5078
C      3.8731     10.1312     19.6379
C      2.6156      3.5101      2.7373
C      5.2636      6.7976     -3.1858
H      1.6757     -2.1008      7.8360
H      2.8082      7.6873     13.3687
H      1.0774     10.8374     12.3188
H     10.1308     -0.4962     -0.2692
H     15.5706     -9.4000     -0.1928
O      5.6889      6.9230      6.3789
C     13.6105     -4.6337      4.5588
H      4.6469     -0.5694      6.5866
C     10.2879     -3.6874      3.6566
C     10.4933     -5.5221      3.1366
H      8.6192      3.5044      3.3559
C     -2.6072      8.4200      7.7036
H      9.1619      2.3782      1.3451
H      1.2273      1.8960      4.0467
H     11.7937     -1.7418     -0.4232
H      3.7406      5.0874     -1.3196
C      2.9060      1.1531      2.3660
C     12.9132     -4.5526      1.9283
O      4.0256      5.2877     -0.4416
O      7.2500      3.5924     -1.9984
C     -0.2432      3.3194      1.7026
C     -0.1866      4.1772      4.1485
C      7.3140     -2.0548      6.9952
H      8.9197     -2.5241     -1.9013
H      2.9338     10.6544     19.2268
H     12.1026     -3.3464      3.9993
H     -1.0969      8.0355     10.1392
O     12.6282     -2.6245      5.8967
C      5.9990     -1.9829      7.8340
C      0.7067      7.2839      7.0281
C      1.8131      7.4308     13.8434
H      2.7368      8.4148     15.1933
C     13.7262     -5.2666      2.9286
H      8.1347      0.0398      8.2624
C      2.0948     -0.5908      4.1623
C      0.7008      2.9793      7.5084
C     10.3031     -1.9648      6.7431
C     -1.8328      2.8117      5.2314
C      5.5162     12.0961     17.4068
C      3.2855      4.0144     10.1304
C      0.5634      2.1522      2.1821
C     11.8460     -5.2573      1.3635
C      3.6504     -0.8316      8.3790
N      1.4294     -1.4054      5.0186
C      2.4490      1.2710      0.8322
O      4.9590      6.0735      1.2455
C      9.6568      6.2963      0.7741
H      5.8553      9.3079     19.0356
C     -2.5815      4.3286      2.6154
C     -3.0421      7.6213      8.9154
H      8.3863      2.9512     -5.1409
H      2.1778      0.2551      6.9628
H      7.8068     -3.9959      5.8980
C     10.7493     -3.2252      0.2964
H      5.6406      7.6364     -2.3878
H      1.2545      6.5264      9.2669
H     12.4428     -3.5334      2.0417
H      1.3862      8.9349     10.1636
H      3.1488      1.6668     -0.0503
H     -0.3592      2.3218      0.1092
H     -0.7023      3.2334      8.8758
C      2.0767      7.5056     15.3574
H      2.2131      0.5611      0.1424
C      1.1540      9.0194     11.2447
C      6.5705      9.6869     12.2416
H      7.6951      5.4809     -1.2263
C     11.1666     -2.5490     -0.9023
H      1.8117     -1.4612      5.8744
C      4.4209      8.5041      4.3309
C      7.8953      7.4150      3.3288
C      8.1748      9.6408     13.9456
C      6.0884      8.5015     14.7391
C      4.3622      6.2950      6.4432
C      1.9745      4.7505      2.4872
C      6.2637      5.7513      0.2860
C      5.7000      7.6723      4.1934
C      8.2701      6.5126      1.0013
H      1.9105      9.7734     11.6179
C      4.4417      5.3463     -5.1595
O      0.4623     10.8863     13.1413
C     14.5558     -7.8575      0.9889
H     -3.3982      8.4426      6.9945
C      6.1750      6.9976      5.2579
H      1.8893      1.6956      6.0635
H     10.2713      1.2430      0.4228
H     -2.6870      4.4074      1.4348
C      7.3259      5.6268      1.1849
H     -0.3731      3.2470      3.5865
O      7.6420      7.2273      5.7013
H     -5.6233      8.2787     10.6653
H      8.7081      9.8884     13.0572
H     13.8486     -9.5034      0.2793
C     -0.7097      7.5796     11.1094
C      2.6708      6.0161     15.9164
C     -1.5837      4.4518      4.6497
C      0.5723      6.8406      5.3634
H      5.6330     -3.9891      9.4148
H      2.7593      2.5086      4.9883
C      1.4284      5.7643      4.8247
H      1.5894     -0.2964      2.0276
H      2.1926      9.6668     15.3829
H     -2.9791      6.5779      8.7760
C      7.3204     -5.3663      8.2135
C      3.9416      0.8092      8.3659
C      6.5392      7.7831      2.9808
C      9.4885     -2.5481      5.4860
C     12.8376     -6.6163      2.9161
C     -1.3333      6.5767      3.6405
H     10.0491     -1.4172      8.8860
H     14.7408     -7.9064     -0.9429
H      4.1676      7.9061     14.3816
H      5.1165      3.8117      0.1739
H     -2.9517      2.9199      5.6249
C      1.7028      1.4279      8.9442
H     11.3485     -1.8506      6.9537
C      0.7452      5.1652      3.4837
C      5.0863      4.0268      3.1902
H      1.2518      4.8709      8.0048
H      4.8638      8.8170     20.7873
C      7.3496      3.6933     -3.2448
H     10.9162     -1.4716      1.6186
H      7.0188     -1.4240      6.1605
C      2.1926      6.8625      9.0232
C     -1.6802      5.3192      5.8104
C      2.3320     -0.2429      2.8357
C      1.3849      4.7390      5.7836
C      2.2792      6.7048      7.5055
C     14.6884     -8.8616     -0.2184
H     11.6282     -7.2907      1.0445
H      3.8602      1.5234      2.3738
H     -2.9310      9.0804      9.8982
H      2.0093      2.2342      1.0969
H      6.6699     -6.2237      7.6758
H      7.9364      1.8235     -3.6403
H      9.4344     -1.6221      4.6394
C      8.0087     -0.4604     -0.1974
H      5.8346      1.0585      3.6750
C     12.4806     -3.7086      4.9867
C     -3.6165      8.2401      9.8378
H      5.7335      4.1162     -1.4579
H      9.1846     -3.5235      3.6312
C      8.2044     -1.8623      8.2166
H     -2.4857      3.2056      2.7799
H      8.8111     -3.2304      6.1298
C     -0.1302      7.6333      7.8906
C      0.7579      3.6080      5.3176
O      8.8066      5.4060      4.5490
C     11.5191     -4.6651      5.6206
C      6.0298      1.6055      7.7347
C      5.2254      1.5311      6.4539
C      2.8084      0.7243      6.0166
H      6.5250      2.4254      8.2240
H      8.2460     -0.6872     10.0747
H     13.6902     -2.9442      6.2894
H      4.1311      0.6397      4.3856
H     -0.0637      7.1967      8.8700
C      1.9874      5.2239      7.2675
H     -1.1624      4.0474      1.9554
C      3.9454      5.4078      5.1722
C      3.8283      2.8103      9.2588
H      7.2217     -1.0453      0.0116
H     13.3685     -6.8650     -0.3184
C     -4.7055      7.7150     10.6844
H      3.3271      3.2596     11.2797
H     -0.9200      6.2187     12.4112
C      3.6843      2.8708      4.7378
C      4.7289      9.4433     18.3009
C      6.2217     -0.7973      8.8583
C      7.4476     -3.4782      6.7779
C      5.7905      4.7187     -5.1245
C      5.4649      0.6620      8.6743
H     -1.2659      3.4907      7.1186
H      6.8103      9.2934     11.2464
H      5.8776     -1.2085      9.9068
H      9.2706      5.5837      0.1561
C      1.3661     10.0553     13.9201
H      2.3931      4.6139     10.0868
H     10.7569     -2.7819      3.4871
