287

C      6.8411     -4.0437     13.6453
N     11.0931     11.0444      1.1938
C      3.9083      1.6104      7.3176
C      2.3575      2.3790     15.6128
H      1.5959      1.4282     10.3093
C      7.2967      4.8387     15.4034
C      7.8407      3.5673     15.6508
C      3.3467      4.2692      5.7868
C      6.2070     -3.0560     11.3847
C      3.3553      7.4859      6.7282
C      6.3103      2.1324      4.3063
C      6.6399      9.4754      8.6404
C      0.7743      8.7014      0.7904
C      8.9603     11.9982     -0.2010
C      8.1305     13.7985      1.1285
N      0.6026      2.4162      6.1117
H      6.4344     -4.2099     10.8798
C     13.9086      6.3056      0.6319
O     -1.0404      3.1007     13.8192
C      3.3779      4.2295      7.3066
H     -0.3946      7.7245     -2.2173
H      7.5795     13.9967      1.9996
C      2.9306      6.4112      4.6056
C      3.5577     -2.3770     16.5215
H     10.4695      3.2671      6.1396
H      5.1185      7.1359     14.0566
C      3.8925     -3.7687     16.2090
H      6.7042      7.8836      9.7498
H      5.9025     -2.0310     10.6710
H      6.2495      3.7602      5.5226
H      4.1308      5.7313      8.6671
H     11.4040      5.5269      6.9403
C      3.2794      2.9521      7.9149
H      8.7022     11.5030     -1.9833
H      6.9674      1.4259      4.8047
C      7.9285     12.3098      8.5275
C      8.9571     10.9438     -1.1571
C      6.5319      5.9048      9.9481
H      1.9084     -0.7913      9.0564
H      2.6535      6.0257      9.4189
C      6.7376      2.8252     16.0191
H      5.1092      3.7945      8.9520
H      3.9703     -1.4973      9.4504
H      2.8732      7.7299      8.9312
C      3.9939     -2.0208     17.6615
C     10.1678      8.6500      4.9676
O      1.9877      8.6500      5.1425
C     11.5508      8.0493      7.0814
C      8.7638      7.8647     12.2572
C      7.3847     -5.3086     13.0501
C      6.4782      6.6460     12.3928
H      5.3027      3.7869     14.6672
H      6.4446      3.5317     12.0347
H      4.7067     -2.9116     14.3328
H      2.0074     -1.6162     18.4259
H      8.2972      6.9343      9.0710
C      7.9792      2.6759      8.5505
H      0.7985      1.2588     14.3402
C      6.9177      5.8830     11.2187
C      8.0393      5.7934     16.2696
H      8.1192      7.9659     16.2325
C     11.9720      6.4322      5.1305
H      4.3210      8.1097      8.6511
H      2.9061     -1.7872     15.7214
H      3.9802      6.4795      2.5871
H      3.2335      4.6963     10.3357
H     15.5981      5.8245      0.8463
C      9.5824     11.4948      7.2663
C      6.8689      4.8413      9.0294
C      3.1345      7.7981      5.2216
C      9.1137     14.6396      0.8464
C      5.5333      4.2677     12.5188
C      4.5887     -3.9006     14.9388
H      9.3606      8.1332      5.3962
H      9.5160      9.0018      3.2449
H      3.7605      1.0395     10.6712
H      7.1775      9.8714      9.4869
H      4.8845      0.8022      5.9895
C     -0.5061      3.3582      8.0956
H      8.3368     -3.5522     15.3695
C      0.3261      8.6405     -0.7103
C      1.7127      2.3815      8.2573
H     10.4219      9.6320     -2.0585
C     12.5884      6.2430      1.3592
H      5.8109      7.4257     12.1189
H     10.7518      1.9667      4.7144
H      8.9109      7.3869      7.3785
C     10.0473      7.5772     12.8968
O      2.5841     10.4031      0.8600
C      7.2958      8.6737      7.6452
C      4.1528      8.4728      7.5202
C      3.5484      1.2433      9.4151
C      3.3592      0.3573     18.0730
H      7.8405     -2.4192     13.9358
H      7.1222      1.3665      6.8268
H     10.2632      5.0986      5.7230
H      5.4343      7.2001      8.2561
C      4.3495      3.5863     16.3565
C     10.5577      8.6008      0.7806
C     -1.8125      6.8997     -1.1700
H      7.6820      1.8069      9.0611
C      5.5643      2.8726      5.4216
H      2.2432     -2.5011      8.0668
H      5.3348     -0.2116     18.1555
C      2.3492     -1.3708      8.2670
C      4.6519     11.0067      7.6347
C     11.2924      4.8271      3.7138
C      3.9970      9.8398      6.7725
C      2.9050      3.6468     15.7637
C      5.8411      7.0086      9.3943
H      1.8947     -1.3431      7.4170
H      2.4205      7.6667     -0.0520
H      0.7157     12.0431      1.6589
H      8.1927      6.5945      4.9482
H      9.7361     12.7638     -0.0807
H     16.0617      3.3376      0.3798
O      5.8476      6.7039      6.3620
C      0.8700      7.9046      4.6507
H      4.8711     11.7225      6.6180
C     10.3295      8.5665      3.5885
C     10.8962      7.3273      2.9333
H      8.5212     10.3802      8.4543
H      8.5983      2.9562     15.3553
C     10.4377      8.3509      7.9158
H      9.5068     15.0379      1.7797
H      2.2819      2.5382      4.9200
H     11.0460     11.4096     -0.8086
H      4.5643      5.6696     11.3180
C      3.0894      0.8755     15.3034
C      0.0315      8.4827      2.0593
O      4.6156      4.7042     11.4382
O      7.5268      3.4354     10.7320
C     -0.0218      3.1664     14.6914
C     13.3045      3.9268      4.2520
C      7.1163     10.7941      7.0481
H      8.1540     10.4291     -0.8519
H      3.1334     10.4350      6.5984
H     -0.8344      9.3597      3.8701
H     -1.1599      9.1624     -1.5846
O      0.0659     10.1220      5.3462
C      6.0597     10.8773      8.0276
C     13.6777      7.0419      6.8653
C      1.9518      7.6691      0.8883
H      2.9562      8.1835      3.1817
C      0.7494      7.4774      3.1424
H      7.6692     13.4325      8.4718
C      2.0256      0.1522     17.3033
C      0.5765      2.7026      7.4476
C     10.2393     10.7574      6.3346
C     10.7454      3.0585      5.0821
C      4.3966     -0.4623     17.7337
C      2.6897      3.9265      9.7991
C      1.0264      2.2603     15.0056
C     11.7474      7.7031      1.8011
C      3.8382     -1.0520      8.4105
N      1.4166     -0.7375     18.2155
C      2.6841      0.8257     13.6562
O      4.9098      6.0638     14.0240
C      9.4734      6.5730     13.9971
H      5.7247      9.8116      6.1025
C     10.8049      4.3866      2.5377
C     10.2810      7.7672      9.2837
H      8.9253      3.2017      9.1432
H      2.2707      0.2276      7.3110
H      7.6356      9.3595      5.5569
C     10.8614     10.0501      0.3746
H      5.0323      7.0242     10.0865
H      1.4326      7.6769      9.5171
H     -0.5416      9.6610      2.2553
H      1.7516      8.1735     -2.2968
H      2.8953     -0.2416     13.3571
H      0.1080      3.9280      8.6335
C      2.3517      7.4750      2.5954
H      1.7254      0.5180     13.0454
C      1.4782      8.7402     -1.4374
C      6.3111     -2.8839     12.5958
H      7.4841      4.9202     11.6845
C     10.3240     10.3905     -1.0389
H      0.6245     -0.8559     17.8111
C      4.3593      8.6574      4.3879
C      7.6044      7.1675     15.6951
C      8.1589     -3.3576     14.3322
C      5.8572     -4.4954     14.6735
C      4.4717      6.2685      6.6963
C     15.2701      5.0879      2.7064
C      5.9946      5.6118     13.2431
C      5.4175      7.7035      4.0801
C      7.7161      6.8374     14.2638
H      2.4757      9.3152     -1.1288
C      4.5156      5.2868      7.7341
O      0.6934     11.0375      1.4528
C     14.9663      5.2166      1.1963
H      9.8581      9.1736      7.4525
C      6.1175      7.3519      5.2557
H     -0.2451      1.8190      5.8443
H      9.9671     14.4657     -0.2059
H     10.9585      5.4237      1.8139
C      7.1937      5.5351     14.0574
H     13.0798      2.8671      3.5284
O      7.4091      7.3351      5.0075
H      7.4805      8.5333     10.8531
H      9.8436      8.6637      1.4633
H     14.3204      3.4861      0.1765
H      4.9413      5.4747      4.7151
C     -0.8240      7.9783     -1.4275
H      6.2966      4.0245      7.2829
C      3.1429      6.2915      3.0148
C     11.8211      4.1763      4.8914
C     13.4435      6.7183      5.4355
H      5.6716      9.1417      9.1899
H      1.9820      1.4351      6.2676
C      1.5231      5.7529      4.9309
H      1.3381     -0.3604     15.0821
C      7.9503      7.3173      7.9291
C      4.0968      0.4471      8.3042
C      6.3077      7.8358      2.9531
C      9.6697     10.0235      5.0300
C      0.1948      6.0722      2.9103
C     11.6772      6.2265      3.7335
H      9.8149     12.3115      8.0203
H     15.9239      4.6749     -0.8443
H      3.5740     -4.1317     14.4971
H      9.9015      3.6445      4.8641
C      2.1194      1.4538      9.3689
H     11.2103     10.8627      6.6148
C     13.9576      5.1881      3.5654
C      5.5500      3.6640     15.7157
H      1.4777      4.9803      8.0021
H      5.4325      8.2814      7.3059
C      7.2145      3.5771      9.4687
H     10.8574     11.9492      1.0496
H      7.0031     11.7780      6.4343
C      2.2390      6.8638      9.0062
C     11.3297      5.4042      5.7877
C      2.1832      0.0166     15.8815
C      1.8633      4.5844      5.8348
C      2.0688      6.6692      7.4095
C     15.3002      4.1430      0.0698
H     12.2221      5.1505      1.0143
H      4.0462      0.9555     15.6916
H      9.1985      9.4337      9.1825
H      3.3095      1.0176     12.8162
H      7.7751      6.4851      7.4005
H      7.2391      2.8163      7.3731
H     10.1367     10.6178      4.1556
C      7.8346     12.6532      0.2775
H      5.3179      1.4298      4.0575
C     -0.4974      8.9087      4.8465
C      9.4198      8.8514      9.9979
H      9.0697     -3.7340     13.6781
C      8.3683     11.0051      7.7065
H     10.6743      3.1809      2.4503
H      8.7666     10.4521      4.7790
C     12.7596      7.6462      7.6797
C      1.4508      3.0740      5.2552
O      8.9357      5.4937     17.1718
C     -1.4510      7.8719      5.6240
C      6.1226      1.2643      7.3202
C      5.0652      1.9167      6.4779
C      2.7201      0.8477      6.5274
H      4.8027      2.6448      9.9221
H      8.2213     12.2519      9.5010
H      0.7404      9.9043      6.1124
H      3.7346      1.3472     17.8566
H     13.1730      8.0000      8.6792
C      2.1505      5.2069      7.2600
H      0.0117      4.1478     15.0844
C      3.9316      5.7034      5.2989
C      3.8684      2.7128      9.2362
H      6.6883     12.3493     -0.1847
H     13.2704      6.1657     -0.3017
C      8.4829      8.3419     11.0506
H      1.9590      3.8416     10.5518
H      7.5184      5.0745      8.0755
H     -1.1646      6.0596     -0.5549
C      4.4246      3.4634      4.9832
C      4.5721      9.7708      5.4576
C      6.5025     12.1679      8.7405
C      7.4245      9.4725      6.5124
C      5.6941      4.5055      8.1745
C      5.6737      0.5855      8.4468
H     -1.2758      3.4425      7.4227
H      6.1131     -2.1649     13.2643
H      9.5932      5.2653     14.0165
C      1.4465      9.9990      0.9529
H      1.8084      3.7905      9.1014
H     10.7744      9.6494      3.4084
