287

C      7.1420      8.8586     13.4619
N     -1.8024     10.2608      1.3520
C      3.8195      1.4209      7.1658
C      2.0469      2.1340      2.9640
H      1.1585      0.5166      8.5640
C      7.8898      4.9130      2.4538
H     -2.9906      7.1330      2.3364
C      7.6319      3.6007      3.0324
C      3.6315      4.0885      5.6853
C      5.5604     10.3560     12.2407
C      3.3988      7.4204     19.3396
C      6.0043      2.1969      4.1164
C      6.0427     -3.2105      8.7303
C      0.9034      8.3833     13.6096
C     -3.6100     12.0685     -0.6660
C     -4.7891     13.4608      0.8623
N      1.1136      2.5144      6.1550
C      0.7497      6.1642      0.5432
O     -1.0950      2.7808      0.6337
C      3.3461      4.3066      7.1559
H     -0.0875      6.8275     10.3374
H     -5.9903     13.6341      1.3924
C      2.7311      6.2635     17.3453
C      3.9142     10.6344     16.2119
H     -1.4310      2.5226      6.0523
H      4.1215      5.8638     13.8210
C      4.2715      9.3222     15.9125
H      5.0765      7.3797      8.7674
H      5.8090     10.8838     10.9919
H      3.8273      5.9317      8.3557
H     -0.4990      5.1865      6.4177
H      5.3985      1.0454      9.8154
C      3.1167      2.9408      8.0744
H     -2.6101     11.3379     -2.4322
H      6.9213      1.7309      4.1017
O      1.2373     10.0395     15.2865
C      7.6455     -0.8555      8.9100
C     -3.1802     10.9901     -1.5610
C      6.3175      5.9526      9.9864
H      1.9711     -0.3892      9.3386
H      3.0785      5.7935      9.3901
C      6.3315      3.3594      3.3004
H      5.5939      3.7254      7.9356
H      4.3599     -1.2784      9.5111
H      2.9511      7.7548      9.4796
C      4.6817     11.2276     17.5135
C     -2.5482      8.9052      5.1807
O      1.8037      8.8619      4.8087
C     -1.4111      8.2419      7.1475
C     -4.1935      7.8768     12.0271
C      7.6174      7.4964     12.9591
C      6.4961      6.7893     12.3146
H      4.8321      5.1496      2.5253
H      4.7077      9.8212     14.2864
H      0.4644     -1.2251      4.7470
H      7.4385     -5.4057      9.3276
H      2.7232     11.0593     13.0604
C      8.1144      2.8491      8.8768
H     -0.1133      1.5666      1.8654
C      6.9904      6.2367     11.0576
C      8.2317      5.8869      3.4517
H      8.5771      7.6102      2.1890
C     -1.0626      6.8347      5.2868
H      3.1353      8.6323     21.2911
H      3.5524     10.8448     15.2243
H      3.8835      6.8186     16.2156
H      3.9588      4.9618     10.1197
H      2.7292      5.6523      0.6915
C     -3.2392     11.0879      7.9218
C      6.5433      4.9071      9.0791
C      2.9890      7.8035     18.0380
C     -3.6667     14.2245      0.9908
C      5.3657      4.5436     12.6155
C      4.7163      8.9020     14.6900
H      8.2083      7.9580      4.0948
H      3.5579      1.4675     10.5110
H      6.9823     -3.1147      9.3053
C     -0.5815      3.1095      7.9132
H      8.1356      9.2944     15.2683
C      0.3976      8.4788     11.9632
C      1.7653      2.5945      8.2517
H     -1.6860      5.5885     11.2640
H     -1.4162      9.6689     -1.3382
C     -0.5861      6.3106      1.3486
H      5.2623      7.0432     12.1243
H     -1.9029      1.9947      4.6838
C     -2.8913      7.2831     12.5320
O      2.8565     10.2428     13.6199
C      6.6376     -4.1680      7.8132
C      3.9523      8.7063     20.6098
C      3.1849      1.4567      9.5953
C      3.1054      0.4859      4.9549
H      7.9627     10.6897     13.8476
H     -1.0556      9.6104      1.9080
H      7.3588      1.2466      7.4737
H     -2.4200      5.3634      6.1958
H      4.4148      6.3371     10.1658
C      3.6196      3.3935      3.4853
C     -2.0616      8.2131      0.4118
C     -1.6440      6.5591     11.6924
H      9.1294      2.9909      9.3426
C      5.0695      2.2947      5.2229
H      5.4267     13.0201     16.6312
C      2.3907     -1.3541      8.8808
C      4.7620     -1.6394      7.3685
C     -1.9015      5.1025      3.5202
C      4.0025     10.2298     19.5755
C      2.6056      3.3770      2.7593
C      5.3186      6.9128      9.7071
H      1.4593     -1.2424      7.9668
H      2.6822      6.9675     13.3940
H      1.2224     11.5260     12.3741
H     -2.8660     12.7062     -0.4219
H      2.4844      3.6603     -0.4811
O      5.4695      7.0731      6.3906
C      0.8591      8.0658      4.4508
H      4.9287     -0.7697      6.5434
C     -2.5999      9.0413      3.6690
C     -2.3687      7.6335      3.2215
H      8.2812     -3.0169      8.0541
H      7.8701      3.1516      3.9937
C     -2.7061      8.3108      7.7384
H     -3.8316     15.3454      1.2879
H      1.9041      2.0116      4.1170
H     -1.5187     11.2880     -0.9065
H      3.6404      5.1145     11.5550
C      2.8816      0.9217      2.2103
C     -0.1553      8.4853      1.9787
O      4.1776      5.1490     12.3013
O      7.4809      3.6922     10.9136
C     -0.3923      3.2336      1.7545
C     -0.0195      3.9903      4.1537
C      7.2534     -2.1219      6.9473
H     -3.7978     10.1307     -1.6166
H      2.9221     10.4534     19.2991
H     -0.6105      9.7976      3.9603
H     -0.8760      8.4752     10.5613
O     -0.3879     10.4401      5.9167
C      6.0756     -1.9138      7.8551
C      0.9334      7.3387      6.8016
C      1.8335      7.3929     13.8117
H      2.8150      8.2240     15.7143
C      0.7081      7.7728      3.0406
H      8.0249      0.0713      8.7419
C      2.3485     -0.4361      4.1979
C      0.6728      2.9095      7.3785
C     -2.7098     10.7513      6.8331
C     -1.7535      2.9164      5.0788
C      5.4749     12.2818     17.3174
C      3.3256      3.9782     10.2363
C      0.5491      2.4306      2.0949
C     -1.2719      7.6593      1.3362
C      3.7140     -0.8452      8.5390
N      1.4135     -1.3478      4.9103
C      2.5919      1.1605      0.7031
O      5.0170      6.0958     14.4631
C      9.8789      6.3211     13.5942
H      5.8517      9.0927     18.6603
C     -2.5024      4.3860      2.5336
C     -2.9412      7.4856      8.8703
H      8.1990      2.7757      7.8105
H      2.0452      0.2990      6.4553
H      7.4898     -4.4645      6.2033
C     -2.0752      9.6243      0.3192
H      5.5679      7.8782     10.2378
H      1.4431      7.0770      9.5535
H     -0.0364      9.5907      2.3854
H      1.0990      8.9378     10.2601
H      3.5761      1.4774      0.2364
H     -0.7363      3.2715     -0.1120
H     -0.4645      3.2638      9.0078
C      2.1255      7.3888     15.2214
H      2.2170      0.2458      0.3908
C      1.3228      9.2102     11.3006
C      6.6735      9.6464     12.3464
C     -2.0273     10.3989     -0.9652
H      1.5337     -1.1453      5.8068
C      4.2879      8.6057      4.4186
C      7.9557      7.3792      3.1287
C      8.1983      9.5240     14.1146
C      6.2768      8.3039     14.8344
C      4.2663      6.2660      6.4401
C      1.9565      4.7491      2.4669
C      6.1638      5.6748     13.2628
C      5.4848      7.4926      4.0484
C      8.3174      6.7232     13.9631
H      1.9826      9.8578     11.9425
C      4.3451      5.2598      7.5351
O      0.5835     10.9697     13.0637
C      1.6980      5.0566      1.0295
H     -3.5396      8.8316      7.4999
C      6.1540      6.9955      5.2009
H      2.2268      2.1368      6.2386
H     -3.2095     14.2700      0.0200
H     -2.4966      4.8491      1.4593
C      7.4268      5.5368     14.2652
H     -0.4458      3.2466      3.5117
O      7.5879      7.1961      5.7850
H     -5.7794      7.9793     10.5369
H      9.3968      9.3561     13.7989
H      0.7938      3.6944     -0.7710
C     -0.4255      7.5452     11.1354
C      2.8818      6.2858     15.9328
C     -1.3856      4.3097      4.7450
C      0.4536      6.8840      5.3526
H      5.2173     -3.5141      9.4248
H      2.8822      2.1662      4.7846
C      1.3546      5.7098      4.7849
H      1.8612     -1.2467      2.3682
H      2.1690      9.9004     15.6277
H     -3.9062      6.7396      8.6263
C      7.2521     -5.3484      8.2032
C      3.9122      0.4924      8.3583
C      6.5029      7.7827      3.0656
C     -3.3186     10.4300      5.6257
C      0.0373      6.2374      2.8390
C     -1.4701      6.4872      3.8332
H     -2.5127     11.2824      8.4171
H      1.7588      5.0776     -1.2769
H      4.2031      8.1289     14.1359
H      5.3781      3.8732     13.4195
H     -2.9026      2.9578      5.3582
C      1.7674      1.3881      9.0618
H     -1.6958     10.5532      6.8559
C      0.7204      5.1113      3.5326
C      5.0187      4.0106      3.2081
H      1.4565      5.0706      7.9551
H      5.0039      8.5917     20.7828
C      7.1201      3.7402      9.6718
H     -1.3314     11.2259      1.1479
H      7.7100     -1.8082      5.8350
C      2.4107      6.8896      9.0412
C     -1.4582      5.5238      5.8148
C      2.3191     -0.3845      2.8114
C      1.3618      4.7999      5.9670
C      2.1818      6.8807      7.4870
C      1.7248      4.2963     -0.3653
H     -1.0249      5.2801      1.2264
H      3.8453      0.8798      2.4884
H     -3.0543      9.2295     10.3892
H      1.5647      1.5413      0.3943
H      6.2509     -5.7663      7.8753
H      7.9854      1.7626      9.1265
H     -3.6360     10.5791      4.4788
C     -4.7428     12.3076     -0.1397
H      5.6245      1.3481      3.3519
C     -0.2720      9.2954      4.9164
C     -3.5994      8.3911      9.8416
H      6.1449      4.2072     11.6925
H     -3.6882      9.2452      3.2955
C      8.3050     -1.8332      8.1071
H     -2.5859      3.3902      2.9476
H     -4.4566     10.2046      5.5080
C     -0.2625      7.7804      7.7777
C      0.8605      3.6118      5.4180
O      8.6682      5.5807      4.5926
C     -1.3747      8.2517      5.7849
C      6.0262      1.4679      7.7414
C      5.2210      1.6092      6.3357
C      3.0565      0.7193      6.3455
H      6.1533      2.4011      8.3282
H      7.9394     -0.8009     10.0565
H      0.6598     10.3164      6.4809
H      4.1691      0.4667      4.6878
H     -0.1854      7.1546      8.6491
C      1.9899      5.2292      7.1203
H     -0.9424      3.9764      2.4602
C      3.7202      5.4770      5.2166
C      3.8976      2.8342      9.2816
H     -5.8095     11.8981     -0.1345
H      0.5265      5.9770     -0.5647
C     -4.7731      7.8944     10.6963
H      3.2670      3.2658     11.3842
H     -1.3338      6.4448     12.7523
C      3.6857      2.7918      4.8911
C      4.7372      9.6928     18.4556
C      6.2242     -0.8003      8.8971
C      7.4391     -3.5787      6.8768
C      5.8506      4.7178      7.8277
C      5.4996      0.4709      8.7536
H     -1.5319      3.2289      7.4149
H      7.4837      9.6034     11.5219
H      5.7040     -1.1899      9.7140
H      9.3149      5.5381     13.0966
C      1.2630      9.8193     13.8312
H      2.4914      3.9885      9.6237
H     -2.0621      9.7985      3.2535
