285

C     -6.1022     -3.9509     13.7743
N     -1.7907     23.6072      1.2820
C      3.6606     14.5886      7.1259
C    -10.7180      2.4616     15.4315
H      1.5394     13.4669      9.9063
C     -5.3803      4.8067     15.3355
C     -4.8952      3.4829     15.5471
C      3.5286     17.3061      5.6051
C     -6.7928     -3.0773     11.4404
C      3.5058      7.5392      6.6201
C      6.1540     15.0142      4.3652
C      6.3402      9.7547      8.5990
C      0.8564     21.6681      0.8759
C     -3.5064     25.1847     -0.1133
C     -4.7250     26.8048      1.1106
N      0.7584     15.0444      6.3750
H     -6.7903     -3.9763     11.1246
C      1.0789      6.3717      0.6411
O    -13.8270      2.8666     13.8420
C      3.4109     17.2321      7.3655
H     -0.3245     20.4373     -2.1642
H     -5.6808     26.9760      1.6203
C      2.9980     19.4515      4.6107
C     -9.6266     -2.3087     16.4274
H     -2.4985      3.7409      5.9965
H      5.8060     19.3344     14.6700
C     -9.2975     -3.5646     15.8996
H      6.6101     21.0865      9.4196
H     -7.1490     -2.3480     10.8077
H      5.6805     16.4155      6.0802
H     -1.0484      5.6319      6.7713
C      3.2284     15.8774      7.9687
H     -4.1353     24.0538     -2.3074
H      7.2436     14.6930      4.5304
C      7.7820     12.3745      8.5212
C     -4.0276     23.9603     -1.0974
C      6.4501     18.9189      9.9800
H      1.5706     11.7721      8.9873
H      2.2867     19.0569      9.3058
C     -6.2094      2.8351     15.9164
H      4.9361     16.7622      8.6389
H      3.9927     11.5418      9.6570
H      3.1721     20.2688      8.9732
C     -9.0088     -1.9306     17.7033
C     -2.7989     21.5275      5.1571
O      1.8706      8.6809      5.2154
C     -1.1804      7.9263      6.9454
C     -4.0794      7.8181     12.3992
C     -5.4207     -5.3337     13.1429
C      6.4845     19.5625     12.2521
H     -7.1859      3.7831     14.5403
H      6.5792     16.7643     12.4620
H     -8.1396     -2.5824     14.6554
H    -11.4284     -1.0509     19.0700
H      8.1685      7.2453      8.9347
C      7.9561     15.4504      8.7480
H    -12.6952      1.4429     14.6781
C      7.0324     18.9989     11.0943
C     -5.0283      5.8796     16.2385
H     -4.6340      7.6424     16.0138
C     -1.0862      6.5954      5.0937
H      3.9191      8.6286      8.5166
H      4.1226     19.3527      2.9718
H      2.9101     17.9455      9.6805
H      3.1974      5.7676      1.2760
C     -3.1719     24.4435      7.3734
C      7.1413     17.7985      9.0264
C      3.0826      7.7880      5.2323
C     -3.7593     27.7637      1.1746
C      5.6054     17.3400     12.4619
C     -8.3889     -3.6775     14.7285
H     -3.7971     21.1092      5.8682
H      3.7821     13.5052     10.2622
H      7.0110      9.8973      9.4264
H      5.3059     13.6043      5.6623
C     -0.5379     16.3613      7.9296
H     -4.1855     -3.3834     15.0675
C      0.3141     21.3931     -0.6663
C      1.7799     15.3802      8.2466
H     -2.1089     19.1464     -1.8831
H     -2.5284     22.6016     -1.5675
C     -0.1138      6.2284      1.5195
H      5.7095     20.3208     11.8631
H     -1.7443      2.3944      5.3643
H      8.8874      7.2416      7.4096
C     -2.8628      7.1953     13.0120
O      2.7236     23.4173      0.9858
C      6.9101      8.7934      7.6992
C      4.2528      8.6513      7.5110
C      3.4774     14.3210      9.6775
C     -9.5720      0.5903     17.8031
H      7.1213     14.0894      6.8246
H     -2.8518      5.6000      5.7103
H      5.7333     19.8310      8.4559
C     -8.7234      3.2849     16.2904
C     -2.1730     21.4242      0.9168
C     -1.7689     19.4937     -0.8128
H      8.0294     14.3750      9.1414
C      5.2620     15.6889      5.4508
H      2.9799     10.5150      8.3880
H     -7.7605     -0.4625     18.4056
C      2.4490     11.5520      8.3892
C      4.4624     11.1377      7.5771
C     -1.5992      4.9370      3.5029
C      3.6607     10.0302      6.9260
C    -10.0551      3.6599     15.7605
C      5.7488     19.9998      9.4728
H      2.3943     11.8944      7.2596
H      2.6184     20.6956      0.3730
H      1.3143     24.5361      1.1956
H     -4.2285      6.7327     17.3820
H     -2.7814     25.7168     -0.3726
H      2.6426      3.0011      0.9341
O      5.7570     19.7731      6.4432
C      0.8778      8.0089      4.5890
H      4.6711     11.9415      6.5537
C     -2.7306     21.4440      3.5927
C     -2.0763     20.3452      2.9534
H      8.1393     10.3013      8.5148
H     -4.4098      2.9409     16.4883
C     -2.2161      8.3931      7.7832
H     -3.1276     27.8831      1.9509
H      1.9224     16.0342      4.6117
H      4.9550     18.6516     11.1030
C    -10.1068      1.1638     15.0655
C      0.1148     21.4947      2.1040
O      4.7634     17.8850     11.5534
O      7.7260     16.3064     10.9543
C    -12.7743      3.1272     14.6425
C      0.2840      3.8790      4.4850
C      7.1535     10.9185      6.7831
H     -5.0268     23.4547     -0.8563
H      2.7225      9.9986      6.7593
H     -0.2300     22.5434      3.9729
H     -1.5070     21.6625     -1.6921
O      0.0093     22.9372      5.6819
C      5.9440     10.9456      7.8053
C      1.0519      7.0703      6.7736
C      1.8191     20.5989      1.1369
H      2.7579     21.4207      2.6564
C      0.9032      7.6596      3.1349
H      8.4049     13.1655      7.6501
C    -10.7139     -0.0334     17.2256
C      0.4699     15.5616      7.6742
C     -2.4948     23.7629      6.4017
C     -2.2444      3.3711      5.0588
C     -8.5332     -0.5590     17.6504
C      2.7156     16.8721      9.8799
C    -12.0494      2.2092     15.1758
C     -1.2080     20.8238      1.8765
C      3.8943     11.9737      8.5522
N    -11.4682     -0.8376     18.0694
C    -10.2950      0.8230     13.7143
O      4.9335     19.2317     14.1275
C     -3.4591      6.2086     13.9948
H      5.5109     22.8232      5.6642
C     -2.3854      4.4173      2.6687
C     -2.5901      8.0699      9.0301
H      8.9180     15.7536      8.6323
H      2.2864     13.1913      6.9075
H      6.9943      9.4736      5.3378
C     -2.1594     22.8264      0.2637
H      5.2972     20.8262     10.1701
H      1.3635     20.5061      8.8755
H     -0.2586     22.4361      2.5837
H      1.2107     21.1597     -2.2922
H    -10.8283     -0.1810     13.4965
H     -0.6388     16.7869      9.0450
C      2.2570     20.2994      2.5244
H    -10.9063      1.6474     13.4984
C      1.3938     21.6921     -1.3125
C     -6.7000     -2.9638     12.7526
H      7.6538     18.2775     11.4781
C     -2.7361     23.3629     -0.9252
H    -12.5322     -0.6118     17.8995
C      4.1857     21.4884      4.4513
C     -5.3132      7.0420     15.6685
C     -4.7849     -3.2100     14.2296
C     -7.0424     -4.2988     14.8193
C      4.5934     19.2040      6.6493
C      2.2316      5.0012      2.6099
C      6.1100     18.5613     13.2668
C      5.4242     20.6993      4.1688
C     -4.8512      6.6720     14.1427
H      2.1164     22.4119     -1.2836
C      4.6367     18.2972      7.9790
O      0.7389     23.8593      1.2233
C      2.1959      5.2710      1.0684
H     -3.1013      8.9442      7.2329
C      6.1722     20.0118      5.0692
H     -0.1478     14.6913      5.9369
H     -3.1227     27.5819      0.2060
H     -2.5141      4.7922      1.7455
C      7.0466     18.4193     14.2216
H      0.2070      2.9953      3.8709
O      7.4543     20.1615      5.2252
H     -5.5113      8.0973     10.9907
H     -2.9899     21.5313      1.7419
H      1.5557      3.5213     -0.5223
H      5.2330     18.3260      4.6354
C     -0.9186     20.6802     -1.2176
H      5.8238     16.9159      7.1229
C      3.1222     19.2359      3.0797
C     -1.1031      4.3345      4.8030
C      0.4841      6.6058      5.4359
H      5.4962      9.1859      9.0815
H      2.2707     14.4380      5.6256
C      1.5961     18.5643      4.7889
H    -11.9381     -0.1481     15.2585
H     -1.7802      7.3657      9.6914
C      7.7751      7.3950      7.8089
C      4.1761     13.6058      8.3840
C      6.3011     20.7828      3.0406
C     -3.3680     23.1735      5.3197
C      0.1849      6.3027      2.9206
C     -1.2079      6.4099      3.5527
H     -2.8111     25.3028      7.9095
H      3.3327      4.2264     -0.2233
H     -8.9704     -4.0619     13.8739
H      4.9415     16.6401     12.9338
H     -3.0167      3.2017      4.3745
C      1.9919     14.3499      9.1612
H     -1.5572     23.7551      5.8939
C      0.9112      5.0346      3.6393
C     -7.3380      3.5253     15.4744
H      1.2575     17.8646      8.0692
H      5.3315      8.4175      7.1652
C      7.8104     16.5464      9.6514
H     -1.6438     24.6216      0.9618
H      7.0652     11.6866      5.9409
C      2.2077     19.9737      8.6746
C     -1.6275      5.5196      5.7251
C    -10.7868      0.1268     15.8254
C      2.0306     17.5335      5.7248
C      2.3102     19.5968      7.2663
C      2.4888      3.9677      0.2705
H     -0.5484      5.1874      1.0170
H     -8.9995      1.3195     15.5935
H     -3.9562      9.3462      9.2854
H     -9.5336      0.6971     13.0346
H      7.1161      6.4050      7.6956
H      7.4136     15.7878      7.9158
H     -2.6928     23.6781      4.6625
C     -4.7582     25.6397      0.5798
H      5.3602     14.1232      3.6434
C     -0.3264     21.9123      4.8464
C     -3.6893      8.5017      9.8074
H     -4.0772     -3.3890     13.3870
C      8.3164     11.1384      7.7391
H     -2.3863      3.4071      2.3348
H     -4.5230     22.9395      5.5480
C      0.0311      7.6741      7.4925
C      1.1464     16.2143      5.3270
O     -4.1655      5.7265     17.3250
C     -1.4803     21.0588      5.5344
C      6.2145     14.1677      7.2454
C      5.0651     14.5162      6.4774
C      2.8936     13.6801      6.1843
H      4.5654     16.1127     10.0101
H      8.2878     12.7223      9.4920
H      0.1178     22.2183      6.3337
H     -9.2552      1.3394     17.3668
H     -0.0966      7.7389      8.5391
C      1.9957     17.9427      7.2285
H    -12.6651      4.0816     14.8585
C      4.1038     18.6705      5.3030
C      3.7649     15.8262      9.3329
H     -5.6648     25.1407      0.2095
H      1.0293      6.6016     -0.3577
C     -4.4036      8.5112     11.1215
H      2.4511     16.8897     11.1638
H      7.8211     17.9641      7.8712
H     -1.2917     18.8105     -0.1138
C      4.2224     16.2329      4.7717
C      4.4840     22.7988      5.3566
C      6.3239     12.2613      8.5607
C      7.3473      9.4787      6.3399
C      5.7271     17.3293      8.1061
C      5.6730     13.5656      8.3124
H     -0.9935     16.5259      6.8957
H     -6.6863     -2.0505     13.2346
H     -3.5444      5.1458     13.6855
C      1.5670     22.9602      0.8492
H      1.8983     16.7575      9.0191
H     -2.6240     22.4530      3.0882
285

C     -6.0555     -3.9162     13.6226
N     -1.7432     23.5271      1.2444
C      3.7513     14.6576      7.1530
C    -10.6289      2.6159     15.4391
H      1.2825     13.7672      9.8300
C     -5.3210      4.8147     15.2219
C     -4.9887      3.4598     15.5562
C      3.5853     17.1877      5.7541
C     -6.8487     -3.1310     11.3983
C      3.4416      7.4331      6.8824
C      6.1713     14.9974      4.3381
C      6.3795      9.6586      8.6161
C      0.9933     21.6005      0.9223
C     -3.5206     25.2445     -0.2295
C     -4.6883     26.8442      1.0944
N      0.5493     15.2053      6.3339
H     -6.6467     -4.0986     10.9683
C      1.1108      6.2066      0.6685
O    -13.7810      2.8551     13.9262
C      3.4735     17.2078      7.3147
H     -0.4875     20.7920     -2.3593
H     -5.3619     26.8406      2.1193
C      3.1315     19.3806      4.5324
C     -9.5744     -2.1290     16.3328
H     -2.6771      3.4238      6.1349
H      5.6164     18.7444     15.0457
C     -9.2148     -3.5960     15.9077
H      6.7378     20.5723      9.6354
H     -6.5689     -1.8976     11.1994
H      5.7839     16.7570      5.7912
H     -1.0932      4.9069      6.5219
C      3.1880     15.8241      7.9203
H     -4.3002     24.9101     -1.9567
H      6.9882     14.1944      4.7017
C      7.7969     12.2659      8.5585
C     -4.0691     24.2164     -1.2402
C      6.3706     18.8870      9.9550
H      1.4748     11.3881      8.9788
H      2.3321     19.0784      9.4858
C     -6.3557      3.0026     16.0131
H      5.5932     16.6618      8.9133
H      4.3002     11.4085      9.1614
H      3.0457     20.6531      9.0286
C     -9.0138     -1.7984     17.5327
C     -2.9811     21.5580      5.1687
O      1.9398      8.6263      5.3901
C     -1.2508      7.9747      6.9967
C     -4.1184      7.7587     12.1989
C     -5.4924     -5.3518     13.1154
C      6.4764     19.6591     12.4266
H     -7.5178      4.0426     14.4270
H      6.5271     16.8026     11.5745
H     -8.0154     -2.7393     14.5943
H    -11.0659     -0.7134     19.1641
H      7.7974      7.1425      8.7920
C      8.0065     15.4876      8.7795
H    -12.2267      1.6190     14.3398
C      7.0783     18.9937     11.2579
C     -4.7501      5.6608     16.1636
H     -4.3930      7.6414     15.9349
C     -1.0291      6.7126      5.0169
H      4.2229      8.2791      8.6037
H      4.0984     19.1387      2.5616
H      3.2140     17.8579      9.7032
H      3.3651      5.7674      0.9876
C     -3.1941     24.3839      7.3194
C      6.9803     17.7233      8.8740
C      3.2147      7.9014      5.2617
C     -3.6158     27.7173      1.0539
C      5.7722     17.4595     12.3583
C     -8.2636     -3.8372     14.7785
H     -3.8045     20.8493      5.5192
H      3.4048     13.8505     10.7637
H      6.9870      9.9940      9.5551
H      4.9218     13.4265      5.8474
C     -0.6129     16.3465      8.0321
H     -4.1504     -3.4407     14.8399
C      0.3520     21.3646     -0.5407
C      1.9049     15.1859      8.2409
H     -2.1950     19.2716     -2.0529
H     -2.8456     22.6960     -1.9309
C     -0.0195      6.3105      1.4546
H      5.2353     19.9880     12.8796
H     -1.6983      2.2201      5.4485
H      8.5995      7.1633      7.0396
C     -2.8279      7.0887     12.9889
O      2.7520     23.2618      0.9192
C      7.0111      8.6451      7.4337
C      4.3192      8.5972      7.5435
C      3.3687     14.2897      9.7264
C     -9.6854      0.6561     17.7838
H      7.3746     13.9178      6.7328
H     -2.6187      5.4724      5.9364
H      5.4265     20.0072      8.1276
C     -8.7116      3.3988     16.2044
C     -2.5185     21.3567      0.8383
C     -1.7687     19.6760     -0.8526
H      8.1452     14.3639      8.7488
C      5.3120     15.5836      5.4285
H      2.7987     10.7313      8.8393
H     -7.5871     -0.6727     17.8821
C      2.3271     11.5769      8.3715
C      4.4506     11.1887      7.5191
C     -1.9050      4.9883      3.7187
C      3.7876     10.0434      6.8609
C     -9.8917      3.7220     15.5744
C      5.6835     20.1301      9.4130
H      2.0720     11.7189      7.2116
H      2.6747     20.8017      0.5711
H      1.2247     24.7117      1.0603
H     -3.6821      6.5778     17.6527
H     -2.2326     25.3138     -0.1806
H      2.7477      3.4291      1.0970
O      5.7063     19.7713      6.3254
C      0.8304      8.0171      4.7552
H      4.2124     11.9134      7.0099
C     -2.9690     21.5054      3.6503
C     -1.9683     20.1993      2.9082
H      8.7635     10.0359      8.4277
H     -4.1847      3.2591     16.2645
C     -2.2103      8.5667      7.8121
H     -3.1495     27.6654      2.0155
H      1.6548     15.2146      4.8866
H      4.4927     19.0501     11.8440
C     -9.9409      1.1705     15.1086
C      0.0817     21.5228      2.1698
O      4.7343     18.0607     11.5015
O      7.7253     16.4231     10.8261
C    -12.8745      3.3703     14.6271
C      0.2168      4.0025      4.2404
C      7.2184     10.9632      6.8270
H     -4.7676     24.0981     -0.4921
H      2.7485      9.8836      6.6938
H     -0.9742     22.3764      3.8711
H     -1.6859     21.5711     -1.3611
O      0.0153     22.9374      5.7300
C      5.9822     10.9505      7.8224
C      0.8080      6.8146      6.8138
C      1.8870     20.3750      0.9063
H      3.1904     21.3435      2.3839
C      0.7142      7.6201      3.2268
H      8.4635     12.8181      8.0487
C    -10.8599     -0.0008     17.1995
C      0.5096     15.5547      7.6099
C     -2.4806     23.5857      6.2985
C     -2.2398      3.3047      5.2130
C     -8.5993     -0.5449     17.5995
C      2.7823     16.8791     10.0454
C    -11.9923      2.2348     15.2252
C     -1.2947     20.8542      1.7891
C      3.7591     12.0394      8.6447
N    -11.4437     -0.8642     18.1390
C    -10.1577      0.9002     13.6063
O      5.1397     19.2086     14.1133
C     -3.5926      6.2078     14.0930
H      5.4613     22.6769      5.9120
C     -2.2798      4.4024      2.5714
C     -2.5489      8.0164      9.1891
H      9.0215     15.8685      8.6565
H      2.4246     13.1246      6.9149
H      7.1406      9.2835      5.4007
C     -2.2562     22.7692      0.2961
H      4.5845     20.3022      9.8778
H      1.5522     20.5387      9.1121
H     -0.3005     22.5926      2.3513
H      1.6238     21.3578     -2.6151
H    -10.8037     -0.0543     13.2511
H     -0.2886     17.0008      8.8573
C      2.2800     20.4237      2.5497
H    -10.9284      1.5796     13.3001
C      1.4627     21.7370     -1.6086
C     -6.6551     -2.9905     12.7141
H      7.7539     18.1684     11.7583
C     -2.6539     23.2324     -1.0927
H    -12.5054     -0.8059     18.2137
C      4.1497     21.5947      4.4117
C     -5.2672      7.1324     15.7563
C     -4.8561     -3.1025     14.1012
C     -6.9833     -4.3068     14.8116
C      4.3336     19.1438      6.6946
C      2.2622      5.0345      2.5674
C      5.9715     18.5523     13.1561
C      5.4530     20.7385      4.1928
C     -4.9814      6.6976     14.2390
H      1.9715     22.6329     -1.2247
C      4.5515     18.2302      7.8516
O      0.6664     23.9042      1.0733
C      2.3058      5.2942      1.0570
H     -3.1300      8.8468      7.1203
C      6.1582     20.0773      5.2608
H     -0.2709     14.6839      6.0561
H     -3.2293     27.9807      0.0508
H     -2.7213      5.0673      2.0252
C      7.1813     18.3896     14.1658
H      0.2363      3.2228      3.5810
O      7.4863     20.1327      5.3535
H     -5.5461      8.6903     11.3666
H     -3.2653     21.3538      1.4958
H      1.4042      3.8015     -0.2565
H      4.9932     18.6097      4.6949
C     -0.8319     20.9079     -1.3917
H      6.1213     17.0298      7.1856
C      3.0436     19.1371      3.0073
C     -1.1839      4.2926      4.6533
C      0.5817      6.5731      5.4644
H      5.4813      9.1972      9.1624
H      2.1165     14.6792      6.3162
C      1.6365     18.6984      4.8951
H    -11.4633     -0.1554     15.3263
H     -1.6527      7.6056      9.3361
C      7.8937      7.5317      7.7747
C      4.1283     13.4961      8.4929
C      6.2444     20.9843      2.9689
C     -3.4757     23.0744      5.4461
C      0.2058      6.2625      2.8766
C     -1.2604      6.3194      3.6360
H     -2.4899     24.7646      7.9594
H      3.2449      4.4904     -0.3975
H     -8.6407     -3.5275     13.7030
H      5.3535     16.6209     13.1311
H     -3.0748      2.9849      4.5047
C      2.0524     14.2345      9.2621
H     -1.3964     23.4793      5.8785
C      0.9961      5.2310      3.5947
C     -7.5110      3.5471     15.4296
H      1.1040     17.5248      7.4234
H      5.3912      8.6574      7.3499
C      7.6667     16.5571      9.7010
H     -2.1489     24.5805      1.1808
H      6.8681     11.6707      6.0048
C      2.2969     19.9298      8.8577
C     -1.6386      5.4109      5.7382
C    -10.8088      0.1161     15.8965
C      2.0059     17.4734      5.6826
C      2.1901     19.6529      7.3403
C      2.5624      4.0840      0.3521
H     -0.7839      5.8113      0.9208
H     -8.9644      0.8020     15.5566
H     -4.0099      9.3181      9.0321
H     -9.0173      1.2309     13.2723
H      7.3087      6.6583      7.5598
H      7.5002     15.7939      7.7332
H     -3.0276     23.7740      4.5484
C     -4.7765     25.5490      0.3607
H      5.1478     14.5889      3.5535
C     -0.2984     22.0202      4.8154
C     -3.6184      8.6322      9.8648
H     -4.0804     -3.5155     13.2419
C      8.3103     11.0912      7.7587
H     -2.1268      3.4250      2.6257
H     -4.4631     23.3287      5.5715
C     -0.0357      7.4797      7.4512
C      1.1807     16.2072      5.3328
O     -4.1750      5.7944     17.3558
C     -1.4763     21.1864      5.6053
C      6.2572     14.1350      7.1872
C      5.0285     14.4045      6.4541
C      2.8266     13.7370      6.3316
H      4.8590     15.8799      9.4937
H      8.2566     12.1206      9.5296
H     -0.4149     22.9858      6.8501
H     -9.3132      1.6250     17.3710
H      0.0322      7.5158      8.7645
C      2.0342     17.9878      7.0160
H    -12.8684      4.4995     14.5715
C      4.2017     18.5517      5.3835
C      3.7494     15.7313      9.5232
H     -5.7354     25.1043      0.1085
H      0.7961      6.2936     -0.2890
C     -4.5154      8.4739     11.0893
H      2.5045     17.1404     10.9314
H      7.6489     18.3285      8.2061
H     -1.1677     18.7371     -0.6799
C      4.2270     16.2050      4.7150
C      4.5328     22.8678      5.3742
C      6.3460     12.2373      8.5211
C      7.1802      9.4466      6.4732
C      5.8689     17.2580      8.1700
C      5.6250     13.4892      8.3554
H     -1.2564     16.9604      7.4259
H     -6.8277     -1.9444     13.1856
H     -3.9653      5.1213     13.7884
C      1.5923     22.9043      0.8259
H      2.1509     16.3434      9.4038
H     -2.5079     22.5417      3.8920
