286

C      6.7602      8.8006      0.6869
N     -1.8499     10.5987      0.9006
C      3.6289      1.4063      7.2449
C      2.0175      2.5346      2.4007
H     13.7683    -11.3711     10.0183
C      7.6504      5.2469      2.6982
H      9.6797     -5.8491      2.5100
C      7.6073      3.8716      3.2073
C      3.5545      4.1554      5.3369
C      6.3824     10.0144     -1.2415
C      3.2745      7.3890      6.4335
C      6.4521      2.1168      4.1776
C      6.2376     -3.5668      9.1382
C      0.9531      8.9152      0.7783
C     -3.1308     12.1054     -0.7250
C     -4.0681     13.4029      1.2003
N     13.1862    -10.4335      6.1867
C      0.6449      6.1509      0.7555
O     -1.3022      2.1894      1.0221
C      3.3060      4.1864      7.0274
H      0.7262      7.1842     -2.1172
H     -4.4914     13.3030      2.3242
C      2.7255      6.2788      4.3274
C      4.4614     10.6181      3.1110
H     11.5984    -10.2467      6.1282
C      3.8138      9.1053      3.1325
H      4.8873     -5.4949     11.0827
H      7.4527      9.6994     -1.4193
H     15.0829     -8.7863      9.6045
H     11.8060     -7.7425      6.8433
H      5.4504      1.3240      9.5736
C      3.1534      2.8880      7.7848
H     -3.2488     11.6388     -2.6575
H      7.3198      2.2890      4.9489
O      1.2318     10.1977      2.8170
C      7.5863     -0.7494      9.0953
C     -3.4745     11.0847     -1.6995
C      5.9323     -7.3995     10.0771
H      1.2965     -0.5741      7.6454
H      4.3311      5.3073      8.7443
C      6.5611      3.0357      3.1038
H      5.9712     -9.2025      7.0358
H      5.5501     10.6280     -1.9296
H      4.0264     -1.4141      8.8172
H     14.9158     -5.1396      9.0226
C      4.4251     10.8540      4.5790
C     10.1446     -4.1014      5.0181
O     15.0330     -4.1280      4.8676
C     11.3538     -4.8228      6.9915
C      8.6282     -5.0402     11.7648
C      7.6621      7.4593     -0.0227
C      6.4251     -6.2646     12.3853
H      5.5097      3.1066      1.3710
H      4.0801      9.3245      0.9259
H      1.9378     -1.9438      3.8106
H      6.5848     -6.3858      8.7674
C      8.0156    -10.6608      9.0963
H      0.3578      0.9446      1.9769
C      7.1169     -6.7802     11.0889
C      8.0298      6.2975      3.3352
H      8.2661      7.1044      2.1217
C     11.8759     -6.1714      5.2482
H      3.3633      8.8245      8.3113
H      5.5637     10.5358      3.0689
H      3.6482      5.9573      2.4536
H      2.6930      5.5554      0.5246
C      9.7046     -1.5715      7.8274
C      6.1101     -8.5770      9.2022
C      3.0848      7.6818      4.9314
C     -3.8324     14.4364      0.4723
C      5.4145     -8.2215     12.6539
C      4.3528      8.5614      1.7824
H      9.5046     -4.8691      5.0762
H      8.3623      8.2386      3.8364
H     16.5552    -11.8738     10.5244
H      7.4492     -3.2668      9.4394
H      5.9290     12.1494      5.3969
C     12.0437     -9.4206      8.1016
H      6.6066     10.6603      1.6376
C      0.7865      9.0002     -0.8001
C     14.4637    -10.3041      8.3838
H     -1.1038      6.5606     -2.5162
H     -2.4761      9.1690     -1.5696
C     -0.5584      6.2361      1.5613
H      5.5411     -6.0920     11.8576
H     10.4088    -10.1631      4.9139
H      7.6821      6.5664      5.1718
C     -2.7950      7.3052     -0.6993
O      2.6116     10.5023      1.1451
C      6.8907     -4.2638      8.0196
C      3.8245      8.6149      7.4164
C     15.9522    -11.5352      9.7006
C      2.3805      1.4078      5.1881
H     -3.8658     11.1611      0.9577
H     -1.0263     10.9898      0.4430
H     10.3133     -7.2987      6.1597
H     16.4337     -6.2381      8.4474
C      4.3813      3.6165      3.1946
C     -2.0385      8.2263      0.2227
C     -1.3038      7.0870     -1.5957
H      7.9809    -11.5097      9.6376
C      5.4476      2.6162      5.2163
H      2.1486     -1.1662      9.1802
H      4.8831     12.9436      4.5168
C      2.1922     -1.0546      7.9992
C      4.5061     -1.9743      7.3572
C     10.7759     -7.8747      3.5769
C      3.8342      9.7901      6.6828
C      2.7300      3.5718      3.0171
C      4.9010     -6.0692     10.0662
H      1.7715     -1.8693      7.2518
H      2.7949      8.0299      0.5436
H      8.6756      5.4677      5.2550
H     -2.9823     13.3039     -1.0818
H      1.9700      3.9339     -0.5262
O      5.4828      7.1891      6.5155
C     13.7410     -4.6621      4.3760
H      4.4975     11.9624      6.1981
C     10.4137     -4.0423      3.5031
C     10.6156     -5.3318      2.9321
H      8.4999     -2.4960      8.9517
H      8.2726      4.0115      3.9844
C     10.0902     -4.8304      7.3933
H     -3.6780     15.4235      1.2001
H      2.5261      4.2206      4.9257
H     -1.2607     10.6553     -1.5718
H      3.7596     -9.3565     12.9522
C      3.0594      1.4749      2.4393
C     12.7707     -4.3155      1.8012
O      4.3262     -8.6222     13.3651
O      7.9490     -9.0665     10.5056
C     -0.3898      2.7477      1.7535
C     12.6803     -8.9750      4.2288
C      7.1411     -2.1323      7.2776
H     -4.4595     10.9194     -1.2580
H      2.8249     10.1910      6.6893
H     12.2580     -3.0008      4.3823
H     -0.1866      8.5225     -2.4542
O     13.3205     -2.8638      6.2021
C      5.7208     -1.9454      8.0273
C     13.6500     -5.7364      6.6789
C      1.6770      7.6084      0.8688
H      2.7313      9.4578      3.2643
C     13.6765     -5.1619      3.0093
H      7.8345      0.1697      8.6456
C      2.2721     -0.0114      4.4678
C     13.1912    -10.0795      7.6194
C     10.1971     -2.0990      6.6955
C     10.8435     -9.6333      5.6323
C      4.9561     11.9228      5.0850
C     16.0147     -9.1274     10.1338
C      0.7485      1.9828      2.1840
C     -1.0845      7.6570      1.4707
C      3.7375     -0.9160      7.9706
N      2.1322     -1.3757      4.8858
C      3.3378      0.8827      1.0650
C      9.5029     -6.5517     13.3024
H      5.7838      9.6073      5.5628
C     10.2239     -8.2458      2.3425
C      9.8449     -4.9439      8.8707
H      8.9916    -10.3623      9.0581
H      1.7291      1.1700      7.2505
H      8.4246     -3.6337      6.5456
C     -2.3886      9.6226      0.1041
H      4.6549     -5.3249      9.1641
H     15.0596     -6.8872      8.7811
H     12.2724     -3.4145      1.7806
H      2.3495      8.6170     -2.6142
H      3.5879      1.7838      0.5630
H     -1.7344      2.6850      0.2409
H     12.1487     -8.4229      8.7423
C      1.8807      7.2827      2.2698
H      4.3773      0.4332      0.9773
C      1.8897      9.2151     -1.6334
C      5.8795      9.2873     -0.2802
C     -2.2448     10.1411     -1.4162
H      1.5535     -1.8786      5.7167
C      4.1995      8.5031      4.3946
C      7.7282      7.8373      3.0613
C      7.3748      9.8721      1.1885
C      5.8468      8.4212      1.9588
C      4.4059      6.3456      6.4694
C      1.9474      4.9412      2.5597
C      6.0958     -7.2012     13.5037
C      5.3471      7.5741      4.1772
C      8.2173     -6.5657     13.6542
H      2.6783      9.6825     -0.8677
C      4.5280      5.2394      7.4810
C      1.7678      5.2516      1.0424
H      9.0747     -4.9697      7.1034
C      6.1619      7.5020      5.4262
H      2.0498      2.4566      4.9178
H     -3.3141     14.5031     -0.4226
H      9.9460     -7.3577      2.0112
C      7.2971     -7.6134     14.2392
H     12.3596     -9.9504      3.6717
O      7.4926      7.5165      5.5122
H      7.0060     -5.1255     10.0078
H      8.2101      9.3602      1.7284
H      1.2069      2.9310      0.7468
H      4.6443      5.3064      4.1414
C      0.0400      7.9586     -1.5108
H      6.6749     -7.6804      7.3656
C      2.5922      6.1562      2.8916
C     11.4566     -8.5429      4.8186
C     13.3632     -5.8772      5.3177
H      6.1749     -4.0910     10.0040
H      3.5228      1.5389      4.9085
C     14.2931     -7.1598      4.6889
H      2.2774     -1.0391      2.5763
H     10.9841     -5.0021      9.3575
C      7.6483     -5.8217      8.1892
C      4.1707      0.5374      8.3630
C      6.1667      7.9357      3.0881
C      9.6468     -2.6831      5.2087
C     12.6708     -6.5488      3.0150
C     11.3895     -6.3455      3.7297
H     10.3519     -1.5338      8.6926
H      0.2438      4.3252      0.2095
H      3.9965      7.6335      1.7717
H      5.9342     -9.1937     12.3371
H     10.1478     -9.4582      6.6182
C     14.4504    -11.1715      9.3653
H     11.2053     -2.5832      6.8067
C     13.4697     -7.5797      3.6234
C      5.3510      3.4965      2.3279
H      4.8390      8.2455      7.7568
C      7.1281     -9.4529      9.6490
H     -1.8666     10.5279      1.9788
H      7.2540     -1.5743      6.3065
C     15.3922     -6.0563      8.5167
C     11.3387     -7.4480      5.9187
C      2.4724      0.1289      3.1061
C     14.4568     -8.3583      5.6247
C     15.0958     -6.2320      7.1259
C      1.2276      4.0051      0.3518
H     -1.2043      5.4611      1.0584
H      4.1610      1.7258      2.7546
H      9.3270     -4.1344      9.1305
H      2.6461      0.2209      0.4982
H      7.9828     -6.1791      7.2025
H      7.3644    -10.8264      8.0998
H     10.1362     -2.1929      4.3793
C     -3.9525     12.1796      0.4122
H      6.4060      1.2353      3.6268
C     12.6818     -3.7094      5.2270
C      8.7519     -5.8283      9.3298
H      4.9560     -7.4321     11.9267
H      9.4703     -3.6510      2.9499
C      8.3172     -1.6919      8.1736
H     10.0019     -9.3836      2.6413
H      8.7740     -2.5524      4.7912
C     12.6122     -5.2209      7.5376
C     13.4976     -9.3292      5.5398
O      9.0706      6.0621      4.4474
C     11.4775     -4.8110      5.4757
C      6.1062      1.1013      7.4562
C      4.9729      1.6014      6.3552
C      2.4292      1.2087      6.5798
H      7.0665      1.8842      7.0675
H     17.7902     -9.9758      9.1786
H      8.0074     -0.6498     10.1304
H     14.2786     -3.2445      5.5861
H      5.2228      0.6876      5.9862
H     12.8562     -4.6194      8.5487
C     14.9815     -7.7181      6.8298
H     -0.4872      3.9075      1.7079
C      3.9898      5.5110      5.0725
C     16.5276    -10.2712      9.1803
H      0.4621      5.8691     -0.4114
C      7.9869     -5.5524     10.5356
H     15.8712     -9.2887     11.1937
H     -1.5213      6.1688     -0.9625
C      4.4560      3.2300      4.5764
C      4.5963      9.6672      5.3653
C      6.1964     -0.8707      9.1671
C      7.3621     -3.5740      6.8968
C      5.8619     -8.2299      7.6616
C      5.5918      0.5706      8.7240
H     11.0945     -9.4955      7.6679
H      8.9247     -3.8898     11.4546
H      5.4149     -1.1382     10.1239
H      9.7199     -7.5982     12.9599
C      1.4155     10.2619      1.3210
H     16.6765     -8.1792      9.9837
H     11.3186     -3.7503      2.9134
