286

C      7.3275      8.8979     13.9069
N     10.8172     -2.7346      1.3995
C      3.7204      1.5040      7.0855
C      2.1154      2.4638      2.3876
H      1.2584      1.0400      9.8131
C      7.8338      4.8139      2.7529
H     10.0207     -5.8907      2.3738
C      7.5857      3.3414      3.3276
C      3.3007      4.3140      5.7173
C      6.6665      9.7679     11.6943
C      3.1269      7.2745     19.3428
C      5.5647      1.9075      4.0228
C      6.2414     -3.2508      8.9378
C      0.7627      8.6071     13.4897
C      9.5648     -0.8506     -0.5079
C      8.1146      0.7530      0.1646
N      0.5066      2.7705      6.1886
H      6.1130      9.0069     11.4579
C     13.7671     -6.6782      0.5751
O     -0.5404      2.2164      0.1720
C      3.3373      4.2273      7.1820
H     -0.2576      7.2707     10.3863
H      7.6272      1.0090      1.0292
C      2.8075      6.5698     17.2320
C      4.0193     10.6633     16.1920
H     -2.2949      3.3005      5.9531
C      4.3272      9.4162     16.0562
H      4.6753      6.8705     -3.8141
H      6.1031     10.8828     11.4750
H      4.0162      5.3283     -4.1313
H     -0.5533      5.1054      6.3317
H      5.7183      1.3151      9.2614
C      3.4197      2.8345      7.6797
H      9.1973     -2.2527     -2.0833
H      5.9174      0.9356      3.8028
C      8.0121     -0.4920      8.7447
C      9.6397     -2.2718     -0.9023
C      6.2192      5.8250     -2.6740
H      2.0410     -0.0046      8.4535
H      1.7819      5.3380      9.3041
C      6.3125      3.1057      3.2997
H      5.1404      3.5899     -4.1089
H      3.5294     -1.7958      9.3410
H      2.7831      6.9536      9.3377
C      4.1857     11.0730     17.5261
C     10.1594     -4.5135      5.1160
O     14.9023     -4.2095      4.8493
C     -1.4061      7.9151      7.2359
C     -4.0721      7.6608     11.7728
C      7.8097      7.5719     12.9368
C      6.4731      6.7650     -0.4098
H      0.7965     -1.8131      4.7688
H      7.6722     -5.6876      9.4650
C      7.9365      2.6157     -3.9608
H      0.3166      1.0044      1.9852
C      6.9538      6.0840     -1.5595
C      8.2176      5.7873      3.8822
H      8.6885      7.5734      2.6604
C     -0.9512      6.5321      5.1916
H      3.6116      8.6189     21.3354
H      3.9391     11.3783     15.2211
H      3.4380      6.5793     15.0158
H      2.9811      4.8030     10.3310
H     16.3146     -7.3484      0.8486
C      9.6667     -1.4364      7.0055
C      6.5773      4.9507     -3.6351
C      3.0216      7.8189     18.0042
C      9.4018      1.6099      0.4057
C      5.6660      4.4900      0.4953
C      4.9951      9.2032     14.7646
H      9.2238     -5.3558      5.2878
H      8.2590      7.9716      4.3358
H      3.1158      1.0408     10.6016
H      6.5175     -3.5884     10.0233
H      5.5306     12.6191     18.3258
C     -0.3214      3.3487      8.3263
H      8.5100      9.4572     15.7083
C      0.5190      8.4895     11.8873
C      2.0027      2.5405      8.1014
H     -2.1485      6.2570     10.7242
H     11.5547     -3.6766     -1.8584
C     12.4350     -6.7041      1.4649
H      5.7831      7.5248     -0.4205
H     -2.0913      1.9690      4.9678
H      7.3469     -6.2841      7.4562
C     -2.7028      7.3441     12.1914
O      2.5022     10.1131     13.8434
C      7.0941     -3.9547      8.0656
C      4.0841      8.3268     20.3418
C      3.3316      1.2172      9.3911
C      3.0685      0.6098      4.8647
H      8.7207     10.4895     13.9615
H     -1.9502      5.3780      6.7784
H      4.7925      7.0323     -1.9248
C      4.0495      3.8497      3.4313
C     10.9037     -4.7036      0.2161
C     -1.6623      6.6385     11.4125
H      8.5096      2.2606     -3.2577
C      5.1595      2.4623      5.3600
H      1.3822     -1.7202      8.1086
H      5.1493     12.7698     16.9127
C      2.2472     -1.0800      7.9152
C      4.5686     -1.9422      7.7376
C     -2.3356      5.0760      3.3586
C      3.8676      9.5785     19.8714
C      2.8447      3.8187      2.7142
C      5.1811      6.8125     -2.9076
H      2.7110     -1.0101      6.6877
H      2.4611      7.2347     12.6054
H     -0.0824     10.9222     14.4883
H      7.2098      6.1996     18.9808
H      9.5600     -0.2948      0.4487
O      5.4628      6.7960     19.4140
C     13.6107     -4.8284      4.5416
H      4.6979     -1.3637      6.8565
C     10.4950     -4.2176      3.6325
C     10.8874     -5.4132      2.9607
H      8.2616     -2.5822      8.3145
H      8.3050      2.6727      3.8439
C     -2.6983      7.6754      7.6329
H      9.2171      2.6512      0.4868
H     11.9138     -1.9052     -1.0579
H      4.1111      4.4238     -0.0719
C      2.7156      1.0100      1.9716
C     12.7163     -4.5099      1.8155
O      4.6565      5.0420     -0.3325
O      7.6634      3.7614     -1.8184
C     -0.2373      3.0245      1.2951
C     -0.0656      3.9290      3.9980
C      6.9243     -2.0185      7.0169
H      9.1996     -3.1197     -0.5979
H      2.8820     10.0126     19.8008
H     12.1186     -2.9345      4.3526
H     -1.3012      8.1023     10.3510
O     13.5193     -3.1695      6.1139
C      5.9852     -1.8690      8.3789
C      0.6638      7.0121      6.6790
C      1.7528      7.4913     13.6138
H      2.5591      8.4698     15.0899
C     13.5876     -5.2363      2.8539
H      8.6337      0.4581      8.7058
C      2.1526     -0.2774      4.2296
C      0.6553      2.9435      7.6671
C     10.4427     -1.9810      5.9208
C     -2.3380      3.0201      4.9031
C      5.1841     12.0457     17.6170
C      3.4891      3.6771     10.3121
C      0.7521      2.1487      2.1772
C     11.4979     -5.3008      1.4086
C      3.4161     -1.1463      8.5571
N      1.1568     -0.8750      5.0581
C      2.2614      0.5668      0.5621
C      9.8672      6.5316      0.5133
H      5.4943      9.9434     18.8983
C     -2.6896      4.0862      2.2577
C     -3.2281      7.7155      8.8789
H      8.1748      3.0444     -4.8055
H      1.8815      1.1678      6.9258
H      7.2411     -3.5529      5.8336
C     10.9780     -3.2755      0.2507
H      5.7192      7.8679     -2.5667
H      0.8689      6.8402      9.7011
H     11.9922     -3.9852      2.3855
H      1.9722      7.9569     10.6617
H      1.8774     -0.4559      0.9439
H     -0.6335      3.0770     -0.3614
H      0.1387      3.2635      9.4337
C      1.9732      7.6216     15.1789
H      1.4356      0.6653      0.0104
C      1.6745      8.8173     11.2645
C      6.9151      9.9202     13.0021
H      8.0894      5.7562     -1.6394
C     11.0855     -2.6360     -1.1020
H      0.5566     -0.2649      5.8109
C      4.3816      8.6030     17.4588
C      7.9859      7.3443      3.5978
C      8.6471      9.5601     14.4571
C      6.2462      8.6148     15.0287
C      4.3970      6.0707     19.4468
C      2.2100      5.0720      2.3179
C      6.4213      5.5745      0.8164
C      5.4963      7.7101     17.1612
C      8.5710      6.6413      0.9585
H      2.6689      9.2349     11.4532
C      4.4146      5.0280     -5.1031
O      0.6313     10.9440     13.6524
C     15.0300     -7.7068      0.8412
H     -3.2550      7.6168      6.8799
C      6.2069      7.2577     18.2620
H      0.6223      1.8868      5.8596
H      9.9729      1.4413     -0.5226
H     -2.4955      4.4869      1.1554
C      7.6817      5.6795      1.4899
H     -0.5002      3.0280      3.6568
O      7.3260      7.2057     18.8369
H     -5.7759      8.2580     10.5178
H      9.2003      8.7207     13.8910
H     14.1420     -8.5769     -0.9338
H      4.8263      5.0378      4.5400
C     -0.5196      7.8786     11.0787
H      6.2782      3.8669     -5.2805
C      2.6368      6.4294     15.6665
C     -1.7659      4.4226      4.6578
C      0.4740      6.7996      5.3038
H      5.2911     -3.9386      8.6736
H      3.2651      2.5474      5.2518
C      1.4260      5.9249      4.6923
H      1.6831     -1.1249      2.5262
H     -3.7510      6.8506      9.1076
C      7.2764     -5.3798      8.3661
C      4.1623      0.2396      8.3813
C      6.5819      7.8704      3.2256
C      9.5231     -3.1394      5.7001
C     12.8348     -6.6946      2.8209
C     -1.4104      6.3588      3.5790
H     10.0016     -0.5553      7.7128
H     14.7393     -9.9047      0.5429
H      4.5768      8.3994     14.1959
H      5.2924      4.1758      1.7392
H     -3.3606      3.0195      4.7369
C      1.9525      1.4325      8.9337
H     11.3649     -1.7384      5.7996
C      0.8781      5.2717      3.5220
C      5.3859      4.3426      3.0540
H      1.1697      4.8288      7.6195
H      4.9028      7.7627     20.7231
C      7.6105      3.8497     -2.9777
H     10.7876     -1.6114      1.5115
H      6.3481     -1.8756      6.0599
C      1.9363      6.5083      8.9497
C     -1.3957      5.3284      5.8654
C      2.2143     -0.2671      2.9791
C      1.8428      4.6651      5.5264
C      1.9250      6.6478      7.5278
C     14.3427     -8.7743      0.0796
H     11.7920     -7.6851      1.0371
H      3.8700      1.1293      1.6655
H     -3.5125      9.9676      9.6820
H      3.2016      1.1358      0.0992
H      6.3542     -5.7817      7.9972
H      7.0522      2.0401     -3.8484
H      8.6858     -2.8700      4.9047
C      8.2246     -0.5496     -0.3777
H      4.3856      1.7148      3.3483
C     12.6546     -3.6895      5.1271
C     -3.7500      8.7970      9.7129
H      9.5567     -3.9481      3.2295
C      8.2155     -1.4729      7.5838
H     -2.6977      3.0553      2.5309
H      8.7405     -3.5334      6.6991
C     -0.1753      7.5661      7.6798
C      1.1942      3.3601      5.0375
O      9.0092      5.5464      4.7137
C     11.4641     -4.8314      5.7549
C      6.0737      0.8165      7.1741
C      5.0248      1.6859      6.3826
C      2.6939      0.9950      5.9786
H      6.9700      1.3275      7.2465
H      4.9954      2.5866      9.3047
H      8.7600     -0.9321      9.6489
H     12.9032     -2.5435      6.5984
H      3.9346      0.5909      4.2167
H     -0.1361      7.2329      8.7134
C      2.1031      5.0945      7.1000
H     -1.3408      3.6044      1.9030
C      4.1707      5.6408      5.0347
C      3.9980      2.6116      9.2472
H      7.1948     -0.6393     -1.1135
H     13.7713     -6.6196     -0.5679
C     -4.5825      8.4000     10.7756
H      4.4305      4.0756     11.0378
H      7.2858      5.4659     -4.2735
H     -1.1412      5.8396     11.9532
C      3.9005      3.2412      4.8322
C      4.6027      9.7492     18.4491
C      6.5679     -0.5657      9.0942
C      7.2827     -3.4595      6.8881
C      5.7110      4.2463     -4.5276
C      5.6292      0.4450      8.4850
H     -1.2570      3.2551      7.3796
H      7.7933     10.3977     13.4413
H      6.2772     -0.8096     10.0612
H     10.7437      5.9877      0.8503
C      1.4084      9.7859     13.6879
H      2.9334      3.2386     10.9447
H     10.8463     -3.3108      3.1281
