285

C      6.8583     -4.0285     13.5084
N     11.1936     10.9137      1.1440
C      3.8818      1.4867      7.3591
C      2.4720      2.4384     15.4275
H      1.8897      0.9400     10.3650
C      7.5345      4.9578     15.0066
H      9.7336      7.0204      2.7567
C      7.8050      3.5317     15.7108
C      3.3687      4.2340      5.7007
C      6.0775     -3.1107     11.3194
C      3.3636      7.4112      6.7515
C      6.0482      1.8096      4.1029
C      6.4240      9.7782      8.9187
C      0.7977      8.8119      0.7759
C      9.0510     12.1958     -0.2638
C      8.4317     13.8036      1.1523
N      0.5305      2.5405      6.1863
H      6.0698     -4.1034     10.8586
C     13.7424      6.2802      0.7625
O     -0.9763      2.8259     13.8661
C      3.3729      4.1605      7.3014
H     -0.7018      8.2982     -2.2330
H      7.7227     14.3203      1.7442
C      2.8956      6.4702      4.6416
C      3.6517     -2.2484     16.5218
H     10.1214      3.7031      6.1364
C      3.7263     -3.5965     16.0534
H      6.1129      7.8275      9.4948
H      5.8880     -2.1759     10.7393
H      3.7868      5.2772      8.7264
H     12.1951      5.1629      7.0257
C      3.4074      2.8722      7.9417
H      8.5990     11.3462     -2.0448
H      6.8970      1.3176      4.6115
C      7.7795     12.4455      8.4502
C      9.0523     10.9297     -1.0574
C      6.5480      5.9056      9.8269
H      1.7573     13.0409      8.6595
H      2.7487      5.7156      8.9887
C      6.6267      3.0510     16.3467
H      5.0577      4.1841      9.2090
H      3.9861     11.5393      9.5187
H      3.5802      6.8636      9.1900
C      4.0916     -1.8383     17.7634
C     10.0775      8.6864      5.3103
O      1.9654      8.6317      5.1362
C     11.5777      8.1247      7.2128
C      8.9202      7.6945     12.1544
C      7.6010     -5.1472     12.9413
C      6.6663      6.7779     12.0921
H      5.4634      4.3317     14.6472
H      6.4123      3.2532     12.3824
H      4.9002     -2.8194     14.0764
H      2.1615     -1.4358     18.7763
C      7.9780      2.6083      8.6225
H      0.6284      1.3055     14.1539
C      7.0340      5.9283     11.0169
C      7.9788      5.7792     16.1579
H      7.8610      7.8213     16.2929
C     11.7286      6.5755      5.2082
H      3.7555      8.6295      8.6945
H      3.4198     -1.5125     15.4241
H      4.2394      5.8741      2.9535
H      3.1094      4.7141     10.0764
H     15.6125      5.9893      1.2321
C      9.8066     11.4927      7.1746
C      6.8858      4.8268      8.8895
C      3.0811      7.8233      5.2082
C      9.3915     14.6368      0.9968
C      5.5023      4.1363     12.3978
C      4.5450     -3.7527     14.7876
H      8.9711      8.4757      5.2364
H      9.4695      8.7980      2.9030
H      3.0319      0.7567     10.4003
H      7.2175     10.2158      9.5662
H      5.0815      0.9619      5.9232
C     -0.4358      3.1621      8.1680
H      8.3977     -3.3862     15.1550
C      0.4038      8.5293     -0.5346
C      1.8623      2.2688      8.1362
H     -2.4081      6.7685     -1.6045
H     10.4133      9.1617     -1.1043
C     12.4842      6.4119      1.5276
H      6.1586      7.4708     11.5550
H     10.7976      2.1500      5.9237
H      8.5234      7.5835      6.7318
C     10.1685      7.5095     12.8783
O      2.6224     10.2646      0.9685
C      6.7994      8.9149      7.7100
C      4.1191      8.4739      7.5791
C      3.3956      1.1874      9.5950
C      3.3575      0.4777     17.8811
H      7.9841     -2.3464     14.6864
H      7.1076      0.8882      6.7430
H     10.4894      4.9817      5.6544
H      5.6517      6.6666      8.4242
C      4.3489      3.6534     16.4166
C     10.7359      8.6454      0.6677
C     -1.7230      6.9946     -0.9167
H      8.3356      1.6299      8.8534
C      5.4704      2.6812      5.3002
H      1.9241     11.4733      9.4603
H      5.3794     -0.5736     18.2576
C      2.2817     11.9109      8.5619
C      4.6327     11.0127      7.5229
C     11.3969      4.7903      3.7528
C      4.0501      9.8355      6.9795
C      3.0820      3.5628     15.7134
C      5.7211      6.8951      9.3791
H      1.7017     11.3781      7.7473
H      2.5185      7.4407      0.1021
H     -0.2669     11.4159      1.4604
H      8.0848      6.7744      5.1890
H      9.9112     12.8079     -0.3526
O      5.5710      6.9245      6.3210
C      0.8355      7.8872      4.6734
H      4.6741     12.1122      7.0751
C     10.3407      8.6617      3.6028
C     10.7951      7.4037      2.8820
H      8.9818      4.1357     16.1209
C     10.4360      8.1683      7.8219
H      9.6949     15.3422      1.7709
H      2.3562      2.9273      4.4145
H     10.9096     11.0032     -1.6268
H      4.9326      5.4202     11.6904
C      2.8138      1.0140     15.3430
C      0.1278      8.6084      2.1673
O      4.7389      4.4760     11.2986
O      7.3945      3.4689     10.7150
C      0.0462      3.4270     14.4653
C     13.2588      3.7054      4.1206
C      7.0748     11.0361      6.7183
H      8.1046     10.5745     -0.6619
H      3.1938     10.4791      6.4557
H     -0.6498      8.7823      3.8364
H     -1.4167      9.0886     -1.3518
O      0.2201     10.1102      5.3702
C      6.0040     10.9005      8.0187
C     13.7345      7.2398      7.0356
C      1.6835      7.4325      0.8856
H      2.8458      8.5525      2.2396
C      0.9081      7.6334      3.2284
H      8.0431     13.2351      7.7591
C      2.0688     -0.1109     17.5565
C      0.7194      2.7293      7.6358
C     10.5352     10.7299      6.2889
C     10.5881      3.2203      5.3093
C      4.3437     -0.5334     17.8781
C      2.6765      3.7675      9.9817
C      1.0036      2.4406     14.7544
C     11.7251      7.7265      1.6540
C      3.7132     12.0339      8.3260
N      1.4583     -0.7743     18.5620
C      2.5919      0.5193     13.8901
O      4.7204      6.1832     13.7901
C      9.3365      6.2914     13.9092
H      5.5130      9.9491      5.2871
C     10.7685      4.4981      2.6435
C     10.2846      7.9502      9.1171
H      8.6960      3.2937      7.8162
H      2.6684     -0.0063      6.6201
H      7.8957      9.1203      6.0104
C     10.8145     10.0874      0.3652
H      4.7433      7.0568      9.7727
H      1.4524      6.8631      9.4192
H     -0.4139      9.5179      2.1638
H      1.9714      8.2254     -2.2558
H      3.0839     -0.3145     14.1139
H     -0.8941      3.3909      9.0774
C      2.2609      7.4200      2.3803
H      1.5437      0.3382     13.6106
C      1.6782      8.7945     -1.3888
C      6.1978     -2.9494     12.5844
H      7.5745      5.1996     11.4688
C     10.3757     10.1658     -1.1483
H      0.7277     -1.1750     17.9632
C      4.0499      8.5832      4.3971
C      7.6475      7.0239     15.6970
C      8.0341     -3.1989     14.1213
C      5.8599     -4.3832     14.8121
C      4.4108      6.2742      6.7028
C     15.1766      5.1205      2.6177
C      5.9402      5.6899     12.9819
C      5.3004      7.6847      4.0868
C      8.0937      6.9681     14.3121
H      2.3938      9.4722     -0.7761
C      4.4466      5.2053      7.7855
O      0.7435     11.3615      1.4479
C     14.8682      5.1859      1.1704
H      9.5455      8.8494      7.3533
C      6.0235      7.4772      5.2317
H     -0.0387      1.7578      5.8820
H      9.8284     14.6246     -0.0761
H     10.5998      5.2958      1.9329
C      7.1811      5.5498     13.9877
H     13.5490      2.9799      3.4080
O      7.5112      7.5901      4.9185
H      7.5900      7.9488     10.4566
H      9.7751      8.3963      1.3854
H     14.4408      3.8174     -0.5929
H      4.7282      5.3885      4.9163
C     -0.7335      8.1271     -1.2176
H      5.3399      3.5351      7.5726
C      3.0312      6.2342      3.0405
C     12.0286      4.1042      4.8458
C     13.3054      6.6486      5.4575
H      2.0381      1.6431      6.1210
C      1.4204      5.6355      5.0340
H      1.0551     -0.6684     15.6252
H     10.5312      6.9494      9.4250
C      7.8673      7.4449      7.7449
C      4.0780      0.5962      8.4883
C      6.1199      7.7315      2.9121
C      9.8097     10.1095      5.1466
C      0.0247      6.4540      3.0815
C     11.5631      6.3124      3.8242
H     10.1573     12.3498      7.8704
H     16.1288      3.9749     -0.4163
H      3.6669     -4.4100     14.0501
H      5.1194      3.5112     13.3628
H      9.5802      3.0131      4.6940
C      2.0290      1.5661      9.5367
H     11.4982     10.3020      6.2855
C     13.6897      5.1841      3.5803
C      5.5041      3.7803     15.6982
H      1.2324      4.7576      8.1134
H      5.4316      8.4462      7.5504
C      7.4628      3.5896      9.5421
H     10.6627     11.7435      1.1614
H      6.7181     11.5179      5.8293
C      2.5435      6.7211      8.9154
C     11.6171      5.2880      6.1007
C      1.6894      0.0861     16.2284
C      1.9532      4.4180      5.6566
C      2.1094      6.6760      7.4561
C     15.2064      4.2018      0.0364
H     11.9565      5.4994      1.1360
H      4.0379      0.9123     15.4102
H      9.7464      9.9993      9.3975
H      3.0817      1.2229     13.3604
H      6.8245      6.5540      7.7754
H      6.8714      2.0632      8.0442
H     10.3790     10.6466      4.4663
C      7.8667     12.6416      0.3706
H      5.3440      1.1813      3.3148
C     -0.2627      8.8107      4.9532
C      9.5103      8.8333      9.8833
H      8.9312     -3.4835     13.3249
C      8.2876     11.1430      7.5896
H     10.8008      3.4338      2.3566
H      8.7267     10.4074      5.0321
C     12.8086      7.6729      7.8890
C      1.3566      3.2415      5.0862
O      8.8418      5.4739     16.9871
C     -1.5215      8.0885      5.7204
C      6.3401      1.4061      7.4088
C      5.1927      1.8350      6.5596
C      2.9794      1.0041      6.3854
H      4.9936      2.7678      9.5463
H      8.3042     12.4838      9.4405
H      0.1277      9.6305      6.3746
H      3.7669      1.5757     17.4358
H     12.7204      7.0474      8.8569
C      2.0213      4.8929      7.2032
H      0.0396      4.4991     14.9662
C      3.8648      5.6401      5.5087
C      3.6941      2.7871      9.4117
H      6.7482     12.4405      0.0803
H     13.5882      6.0203     -0.2088
C      8.6486      8.2395     10.8632
H      2.5568      3.7465     11.1293
H      7.4673      5.4549      8.2144
H     -1.3612      6.0031     -0.7548
C      4.1012      3.3425      4.8181
C      4.5354      9.7958      5.4723
C      6.3204     12.2959      8.6067
C      6.8955      9.5285      6.4277
C      5.6352      4.4382      8.1889
C      5.5434      0.3972      8.3945
H     -0.7010      3.5068      7.2316
H      6.2498     -1.9522     12.7798
H      9.0385      5.3504     13.5358
C      1.5233     10.0959      1.1082
H      1.5216      3.5807      9.6016
H     11.0657      9.4722      3.3329
