288

C     20.3775      8.8490     13.8256
N     11.0826     10.4146      1.2245
C      3.7291     14.3743      7.1581
C      1.9722     15.3591      2.7627
H      0.8408     13.7548      9.5469
C      7.9597     17.7833      2.5090
C      7.5925     16.3748      2.8940
C      3.3378     17.1631      5.6353
C     19.6985     10.0184     11.5819
C     16.2576      7.3901     19.5581
C      5.9145     14.7312      3.9780
C      6.4442      9.7303      8.9702
C     13.6914      8.6868     13.5359
C      9.2866     11.6648     -0.3057
C      8.3660     13.7394      0.5079
N      0.6490     15.5275      5.8863
H     19.6002      9.0238     11.2811
C     13.8060      6.3594      0.6468
O     -0.5421     15.5969      0.3682
C      3.2222     17.2051      7.0801
H     12.7247      7.6078     10.4341
H      7.2074     13.7129      0.7988
C     15.8116      6.5179     17.3880
C     16.6327     10.4073     16.4105
H     10.0334      3.4256      5.8095
C     17.3864      9.3861     16.0799
H      5.2690     19.6060     -3.9181
H     19.3188     10.8360     10.9221
H      4.0608     18.5005     -4.6027
H     12.8578      4.7034      6.0921
H      5.6883     14.3828      9.3346
C      3.2972     15.7820      7.9704
H      8.9594     11.0002     -2.2160
H      6.7432     14.1870      4.4091
C      7.9001     12.6660      8.7442
C      9.4753     10.7196     -1.2912
C      6.2670     18.7598     -2.5980
H      1.0317     12.4462      8.0824
H      1.6283     18.4165      9.2770
C      6.2794     16.2980      3.4657
H      5.8823     16.3661     -5.0791
H      3.5076     11.3863      9.3254
H      3.3176     19.0996      9.1180
C     16.7412     10.9652     17.8484
C     10.1350      8.5975      5.0881
O     14.9952      8.7155      4.9825
C     11.5100      7.8567      7.1051
C      8.8111      7.8322     12.0782
C     20.6972      7.5310     12.9472
C      6.5502     19.6762     -0.5474
H      5.4411     17.9621      3.1452
H      6.0265     16.9386     -0.4397
H     18.1715     10.2872     14.5162
H      1.0125     10.9719      5.2254
H      7.7724      6.8681      9.2898
C      7.9172     15.5428     -4.0884
H      0.5103     14.3262      1.4483
C      7.0663     18.9206     -1.6171
C      8.2931     18.5578      3.8499
H      8.2433     19.6445      2.5929
C     12.0035      6.6191      5.0843
H     16.2731      7.8779     21.6924
H     16.3928     11.0018     15.5325
H     16.9575      6.9378     15.7498
H      2.9803     17.6018      9.5621
H     16.0405      5.2763      0.3861
C      9.6048     11.5264      7.1951
C      6.8285     17.9183     -3.7591
C     16.0927      7.8524     18.1354
C      9.3214     14.5530      0.6493
C      5.5174     17.7326      0.4495
C     17.9743      9.1422     14.8596
H      9.3397      7.8539      5.2314
H      8.0286     20.8310      4.2896
H      3.1903     13.5417     10.4298
H      7.0960     10.1997      9.5587
H     18.2036     12.5915     18.5870
C     -0.1872     15.8911      8.0614
H     21.4804      9.7506     15.2285
C     13.0891      8.6308     12.0108
C      1.8963     15.3238      8.1923
H     10.7887      6.5724     10.5567
H     11.4564     10.4994     -2.1252
C     12.5346      6.2892      1.2814
H      5.7291     20.4782     -0.6125
H     10.6816      2.0269      5.1831
H      8.5540      7.4036      7.8905
C     10.0606      7.2420     12.4004
O     15.4793     10.1550     13.6453
C      7.2537      8.8988      7.9812
C     16.7249      8.3716     20.5967
C      3.2388     13.9771      9.6080
C      3.1204     13.4341      4.8312
H     22.1136     10.0046     13.7890
H      6.8900     13.3685      7.0196
H     11.3522      5.1693      6.9658
H      4.8610     20.2219     -1.7226
C      4.0050     16.3068      3.4631
C     10.7753      8.2378      0.5205
C     11.0557      7.0481     11.3824
H      8.3806     14.6095     -3.5825
C      4.9749     14.9976      5.2134
H      2.0398     11.3227      7.0615
H     18.1776     12.3375     16.8856
C      2.1329     12.2294      7.6663
C      4.3091     10.9837      7.6111
C     11.1205      5.0420      3.5176
C     16.6127      9.8864     19.6897
C      2.7265     16.6779      2.8439
C      5.3001     19.9026     -2.7393
H      2.1791     13.0568      7.1184
H     15.5834      7.5548     13.4783
H     13.0895     11.8251     14.2146
H      7.9980     19.1691      5.7165
H     10.2013     12.1867      0.1934
H     13.4267      4.2124      0.0532
O      5.5854     20.0214      6.5718
C     13.5992      8.0724      4.7043
H      4.3983     11.7160      6.6565
C     10.1882      8.5063      3.7166
C     10.4437      7.2284      2.9338
H      8.7285     10.8654      8.3795
H      8.4151     15.9946      3.6899
C     10.3546      7.8846      7.7143
H      9.2791     14.9001      1.6610
H      1.5766     16.0442      4.0450
H     11.4042     11.6202     -0.8308
H      3.9357     17.0924     -0.4015
C      2.8019     13.7260      2.2074
C     12.7521      8.4779      1.7919
O      4.3562     17.9709     -0.2824
O      7.7598     16.5529     -1.8939
C     -0.1237     16.0077      1.4215
C     13.1329      3.9180      3.8715
C      6.8627     10.8316      7.1245
H      9.0102      9.5365     -0.8564
H     15.3722     10.1344     19.3541
H     12.2773      9.3228      4.1638
H     11.6629      8.9892     10.4909
O     12.9995      9.7806      6.2432
C      5.8245     10.8175      8.1198
C     13.8113      7.1055      6.8293
C     14.7025      7.5900     13.9633
H     15.4557      8.8544     15.7655
C     13.5585      7.6213      2.8300
H      8.1733     13.5958      8.1296
C      1.9644     12.7017      4.1904
C      0.8973     15.7910      7.2439
C     10.1586     10.8400      6.1908
C     10.7053      3.1291      4.9926
C     17.7170     11.9540     17.8653
C      3.1767     16.7597     10.2917
C      0.7664     15.1302      2.0545
C     11.7064      7.6424      1.2464
C      3.4479     11.9052      8.3794
N      1.2353     12.0762      5.0615
C      2.4663     13.3765      0.7136
C      9.7237     19.2461      0.5592
H     18.5636     10.0532     18.5099
C     10.1656      4.5049      2.6352
C      9.9487      7.7012      9.0760
H      8.5381     15.6103     -5.0714
H      1.7971     14.4021      6.3726
H      7.3360      8.9969      5.7893
C     11.1381      9.7250      0.2609
H      5.9709     20.7961     -2.7792
H      2.1680     20.4230      9.3369
H     12.2734      9.3410      2.2055
H     14.4469      9.2128     10.3360
H      2.4762     12.2495      0.8268
H      0.1206     15.8874      9.0228
C     15.1051      7.9347     15.7191
H      1.5856     13.7636      0.5593
C     14.2916      8.8155     11.4068
C     20.0285      9.9907     12.8268
H      7.8696     18.1016     -1.6739
C     11.0846     10.7252     -1.2558
H      1.2431     12.6228      5.9302
C      4.4730     21.4899      4.4152
C      7.8779     20.0767      3.5482
C     21.6436      9.3129     14.3033
C     19.3877      8.4465     14.9876
C      4.2854     19.2806      6.4257
C     15.0418      5.1685      2.4251
C      6.1876     18.9055      0.7193
C      5.4779     20.4060      4.2725
C      8.3351     19.5087      0.8303
H     15.2489      9.0868     11.9560
C      4.4658     17.8323     -5.2909
O     13.3802     10.8741     13.9316
C     14.9493      5.2431      0.9314
H      9.3491      8.2081      7.1985
C      6.3552     20.2231      5.3390
H     -0.0609     14.8589      5.9842
H     10.2944     14.6634     -0.1125
H     10.3921      4.5130      1.5234
C      7.5142     18.5210      1.4435
H     13.0939      2.9329      3.1870
O      7.6841     20.1005      5.7326
H      7.5305      8.2647     10.7883
H     22.4733      8.5901     14.6661
H     14.8344      4.1066     -0.8322
H      4.6363     18.7308      4.2408
C     11.9693      8.2116     11.0166
H      6.4293     17.4018     -5.6822
C     15.8258      6.5478     15.9454
C     11.7040      4.4184      4.6116
C     13.5650      6.7615      5.4775
H      5.6729      9.3034      9.4745
H      2.9738     15.0549      5.2184
C      1.4832     18.7174      4.6491
H      1.1463     12.4145      2.2468
H      9.7114      6.7257      9.1914
C      7.5746      7.3840      8.2514
C      4.0217     13.3786      8.4321
C      6.6050     20.7004      3.2597
C      9.5409      9.9297      5.3997
C     12.8517      6.3083      2.7859
C     11.5440      6.3332      3.6209
H     10.1416     12.6737      7.3921
H     15.1158      3.0731      0.2986
H     17.2650      8.4876     14.5601
H     10.1983      3.2466      4.2024
C      1.7805     14.4106      9.1466
H     11.2614     11.2824      5.5597
C     13.8773      5.2853      3.4324
C      5.1427     17.0778      3.1349
H      0.9716     17.8901      8.0513
H     18.0860      8.5284     20.7242
C      7.5507     16.5725     -3.2360
H     10.3648     11.0917      1.2027
H      6.0725     11.3758      6.5661
C      2.2658     19.4425      9.0457
C     11.8175      4.9947      5.9833
C      1.9416     12.7213      2.8012
C      1.7977     17.5370      5.5806
C      2.0147     19.4371      7.3953
C     14.5436      3.9203      0.1601
H     11.9037      5.4931      0.9159
H      3.8318     13.7914      2.5154
H      9.1946      9.3926      9.0012
H      2.7290     13.6851     -0.2090
H      6.8137      6.5732      7.9625
H      6.7622     15.5460     -3.9243
H      9.8386     10.4789      4.6101
C      8.2160     12.4819     -0.3916
H      5.3443     14.2348      3.1632
C     12.5177      8.9578      5.0813
C      9.4242      8.6148      9.8580
H      9.0807      9.1427      3.4088
C      8.1896     11.4404      7.6708
H     10.1967      3.3265      2.6462
H      8.3974     10.3101      5.7235
C     12.8211      7.6392      7.5445
C      1.2101     16.3607      4.8742
O      9.0172     18.4746      4.8345
C     11.4369      8.0226      5.6333
C      6.2239     14.1470      7.3411
C      5.1355     14.4554      6.4938
C      2.8210     14.0020      6.1094
H      6.9345     15.0221      7.4843
H      5.2372     15.9181      9.4269
H      8.4694     12.2257      9.5248
H     12.1888     10.1267      6.6821
H      4.0290     13.3560      4.0727
H     12.8056      7.7474      8.4978
C      1.8514     17.8802      7.1805
H     -0.3610     17.0911      1.5977
C      3.8751     18.6261      5.1283
C      3.9334     15.5953      9.3023
H      7.2635     12.2712     -0.5798
H     13.8705      6.7537     -0.4859
C      8.4584      8.1358     10.8217
H      3.8330     17.0784     11.1316
H      7.7024     18.5282     -4.1245
H     11.5781      5.9477     11.3386
C      3.5788     15.9847      4.9552
C     17.4135      9.5893     18.4324
C      6.4397     12.4793      8.9797
C      7.1955      9.4808      6.7854
C      5.7367     17.4077     -4.7332
C      5.6483     13.5646      8.6216
H     -1.3587     15.8120      7.9624
H     19.6954     10.5595     13.6343
H     10.3561     19.2050      1.5316
C     14.2416     10.0285     13.4918
H      2.2215     16.0779     10.5540
H     10.6989      9.7562      3.5507
