290

C     20.3393      8.7838     13.4751
N     11.0930     -2.3896      1.1407
C      3.7715      1.1446      7.1761
C      2.0428      2.4348      2.9633
H      1.4869      0.8777     10.0777
C      7.7278      5.2121      2.7489
H      9.8403     -5.5464      2.5983
C      7.8044      3.8181      3.3596
C      3.2933      4.1409      5.5697
C     19.2343     10.2145     11.4384
C     16.0178      7.3857     19.4399
C      6.1359      2.2380      4.4088
C      6.0434     -3.2055      8.5031
C     13.4720      8.6448     13.4839
C      9.4688     -0.8683     -0.4445
C      7.9467      0.5718      0.7821
N      0.9656      2.2966      5.9143
H     18.5126      9.6933     11.0078
C     13.7112     -6.7652      0.7557
O     -0.1484      2.2758      0.0531
C      3.1569      4.0648      7.1808
H     13.3714      6.8276     11.1252
H      6.8105      0.7516      1.0274
C     15.7810      6.4820     17.3636
C     16.4007     10.5656     16.4414
H     -1.5623      2.5367      5.6372
H      4.8127      7.0772      0.7398
C     17.0447      9.2541     16.3296
H      4.3189      6.8966      9.3422
H     20.0754     10.6896     11.1345
H      3.8142      5.6668      8.6603
H     -0.4622      5.0103      6.4244
C      3.2529      2.5892      7.8088
H     10.4701     -1.1059     -2.4282
H      7.0864      2.1443      4.7483
C      7.5211     -0.5381      8.6412
C      9.7657     -1.8357     -1.8403
C      6.1312      5.8437     10.0781
H      1.6663     -0.0126      8.6842
H     14.3674     -6.8192      9.3307
C      6.4818      3.5162      3.6045
H      5.6592      3.6105      7.6175
H      3.8872     -1.4136      9.3344
H     16.0670     -6.3988      9.0787
C     17.5135     11.1034     17.5610
C     10.2346     -4.0898      5.0959
O     15.0927     -4.0398      4.5475
C     11.6663     -4.6234      7.1708
C      8.6931      7.9343     11.7131
C      7.5460      7.4897     12.8669
C      6.5153      6.5966     12.4880
H      5.3520      5.0426      2.3986
H     17.7359      9.7661     14.2145
H      1.5288     -1.6356      5.7848
H      8.1325     -5.9917      8.3810
C      7.8581      2.8220      9.1906
H      0.8046      1.3442      1.2645
C      6.8192      5.9009     11.2521
C      8.1968      6.1980      3.6510
C     -0.8746      6.8673      5.2375
H     16.8228      8.5979     21.5803
H     16.0807     10.8440     15.4019
H     16.6258      6.7113     14.9839
H      3.6941      4.2522      9.4787
H     15.6717     -7.0874      0.6476
C      9.3644     -1.2860      7.5999
C      6.7462      4.9770      9.1183
C     15.9414      7.7196     17.9294
C      9.1828      1.4530      1.0022
C      5.4687      4.5363      0.3378
C     17.4915      8.9005     14.9202
H      9.7017     -5.0156      5.1202
H      8.3118      7.9066      4.3025
H      3.9617      0.6931     10.5845
H      7.0964     -2.7864      8.5534
H     18.7996     13.0488     18.0620
C     -0.1084      3.1607      7.9683
H     21.0579      9.9928     15.4032
C     13.1603      8.5113     11.9548
C      2.0093      2.1599      8.3260
H     10.8446      6.5202     10.6204
H     11.2412     -3.3482     -1.9291
C     12.3989     -6.6036      1.3608
H      5.5593      7.1381     12.1975
H     -1.8143      2.7921      4.0247
H      6.9230     -6.3169      7.2983
C     10.0356      7.2076     12.4084
O     15.5059      9.9450     13.3979
C      6.6649     -4.0835      7.5212
C     16.9304      8.5411     20.3606
C      3.6484      1.0979      9.7835
C      3.2026      0.0237      4.8481
H     11.1640     -2.8740      2.0307
H      6.8143      0.8280      6.9057
H     -2.2699      5.7600      6.3511
H      4.3759      6.2817     10.7244
C      4.1495      3.4859      3.3079
C     11.0122     -4.6618      0.3202
C     11.2854      6.5512     11.5494
H      8.6623      2.3456      9.8075
C      4.9970      2.4806      5.5120
H      1.6535     -1.3172      9.3985
H     17.9553     12.5708     16.4727
C      2.0066     -1.0763      8.4759
C      4.2297     -1.7733      7.4369
C     -2.0080      5.2431      3.7678
C     16.6235      9.9908     19.6157
C      2.9336      3.7300      2.6720
C      5.0831      6.9303     10.1378
H      1.6664     -1.3848      7.4649
H     15.1804      7.5274     12.8730
H     13.5472     11.8287     13.6741
H      9.7409      5.8027      4.0785
H     10.2898     -0.4754      0.1049
H     13.4779     -8.8530     -0.6207
O      5.4382      6.4960      6.5226
C     13.8913     -4.8831      4.5461
H      4.2840     -1.2750      6.5242
C     10.2566     -3.8957      3.6413
C     10.9008     -5.1598      2.9294
H      8.2182     -2.5121      8.3294
H      8.7362      3.1216      3.0179
C     10.7048     -5.2680      7.7342
H      9.9152      2.1082      1.7832
H      1.6245      2.4849      3.9170
H      5.0422      5.6107     -1.2065
C      2.7630      1.2602      2.4866
C     12.7755     -4.4008      1.8364
O      4.4685      5.0903     -0.7001
O      7.3836      3.8444     11.0350
C     -0.0588      3.1250      1.2156
C      0.0744      4.0451      4.1687
C      6.9088     -1.9357      6.8454
H      8.9899     -2.6304     -2.2713
H     15.4538     10.0047     19.5517
H     12.5764     -3.5920      4.0837
H     12.0862      7.8777     10.4175
O     13.4407     -3.1110      5.9916
C      5.6896     -1.8284      7.7216
C     13.7371     -5.6303      6.8197
C     14.4795      7.5083     13.6796
H     15.4362      8.2259     15.2175
C     13.5284     -5.1967      3.1117
H      8.0644      0.4464      8.6269
C      2.3189     -0.6873      4.1392
C      0.7867      2.2854      7.5455
C     10.0835     -2.1780      6.9200
C     -2.0398      3.2617      4.8436
C     18.4478     12.1974     17.2854
C      3.5876      3.8171     10.4013
C      0.6535      2.1647      2.2182
C     11.7193     -5.2604      1.5277
C      3.5071     -1.0594      8.4299
N      1.2870     -1.3895      4.7484
C      2.6869      0.9273      0.7613
O      5.3219      6.5469      1.4055
C      9.6324      6.4718      0.6013
H     18.5853      9.7725     18.6375
C     -2.4142      4.7507      2.6283
C     10.0870     -5.4933      8.9399
H      8.0494      2.8824      8.1432
H      1.9465      0.2500      6.2851
H      6.8454     -4.1269      5.5402
C     10.8334     -3.2892      0.1506
H      5.8114      7.7512     10.0944
H     15.0358     -5.4239      9.4175
H     12.5370     -3.4786      2.3798
H     14.1328      8.7942     10.1950
H      3.5943      0.5040      0.3272
H     -0.5221      2.1617     -0.8598
H     -0.5582      3.7000      8.8872
C     14.7858      7.3628     15.2386
H      1.9658      0.1780      0.7798
C     14.0315      9.0998     11.3094
C     20.0268      9.8480     12.4910
H      8.1886      5.7031     11.3034
C     10.7662     -2.7991     -1.1731
H      0.3910     -1.7214      4.1270
C      4.4003      8.4638      4.4467
C      8.1599      7.6894      3.2995
C     21.4550      9.5240     14.5475
C     19.2446      8.5750     14.8596
C      4.3174      6.0215      6.3693
C      2.3541      5.0735      2.5104
C      6.2223      5.7070      0.6948
C      5.6219      7.5381      4.0575
C      8.2878      6.5889      0.7692
H     14.4373      9.8598     11.8965
C      4.2646      5.1276      7.7636
O     13.4086     10.9118     13.5522
C     14.7752     -7.6622      0.9929
H      9.8357     -5.8840      6.9878
C      6.3240      6.9673      5.3167
H      0.5662      1.4996      5.3511
H     10.0748      1.1913      0.5321
H     -2.8192      4.7006      1.6309
C      7.5902      5.4637      1.2692
H     -0.2762      3.4334      3.3115
O      7.4123      7.2701      5.6968
H      7.3830     -4.2231     10.2017
H     22.4002      9.1559     14.2676
H     14.8314     -7.9527     -0.6459
H      4.5884      5.1967      4.2411
C     12.4077      7.3603     11.2105
H      6.1768      4.9661      7.0847
C     15.8225      6.4355     15.8307
C     -1.2660      4.4632      4.6378
C      0.7135      6.8606      5.4381
H      5.1704     -3.2269      9.1677
H      3.0831      1.9947      5.1618
C      1.5181      5.8506      4.8010
H      1.6083     -0.6232      2.2319
H     10.3501     -6.1245      9.6125
C      6.9856     -5.5331      8.0380
C      3.9965      0.3835      8.4086
C      6.6876      7.9951      3.0339
C      9.4862     -3.1981      5.8940
C     12.7828     -6.5413      2.9275
C     -1.5673      6.6435      3.7093
H      9.7716     -0.4118      8.2628
H     15.1928     -9.7005      0.3941
H     17.0006      8.1983     14.3379
H      4.8404      4.1917      1.2856
H     -3.1490      3.3546      4.4453
C      2.1409      1.4392      9.4879
H     11.0993     -2.4161      6.5142
C      0.7981      5.2088      3.5611
C      5.3358      4.3683      3.1794
H     14.1192     -8.3284      7.6711
H     18.0494      8.3883     19.8104
C      7.0774      3.8122      9.8372
H     10.7342     -1.3905      1.2632
H      6.8533     -1.5025      5.8994
C     15.1094     -6.2903      8.7775
C     -1.2510      5.3465      5.8978
C      2.3610     -0.2181      2.8349
C      1.5998      4.6400      5.7185
C     14.9651     -6.2846      7.3518
C     14.5138     -8.7115     -0.0723
H     11.7765     -7.4742      1.5996
H      3.8644      1.3842      2.7578
H      9.2196     -3.5675      8.7723
H      2.0180      1.5099     -0.0460
H      5.9614     -6.4049      8.1919
H      7.2526      2.0225      9.0590
H      8.8611     -2.6060      5.3524
C      8.0784     -0.4587     -0.3329
H      5.4778      1.5038      3.6902
C     12.8177     -3.8981      5.1023
C      9.2938     -4.4515      9.4701
H      6.1750      3.8449      0.1337
H      9.3471     -3.7444      3.2346
C      7.9486     -1.5712      7.8283
H     -2.5013      3.6486      2.4789
H      8.9836     -4.1346      6.5411
C     12.9090     -4.9317      7.6818
C      0.6824      3.6083      5.4331
O      9.1010      6.2210      4.6926
C     11.5988     -4.5034      5.6930
C      6.1214      1.4790      7.4887
C      5.1459      1.5534      6.4704
C      2.9340      0.5014      6.0878
H      6.5608      2.4962      7.5087
H      5.3711      2.6170      9.1560
H     13.3783     -3.9714      6.4092
H      4.0522      0.4185      4.3651
H     13.0710     -4.7642      8.6974
C     14.7593     -7.7541      7.1351
H     -0.2664      4.0616      1.0870
C      3.8909      5.4049      5.2023
C      4.0793      2.7562      9.3614
H      7.4917     -0.7095     -1.1958
H     13.3551     -6.9132     -0.3044
C      8.3407     -4.4218     10.6287
H      4.0754      3.7246     11.3573
H      7.6827      5.2002      8.6664
H     11.4078      5.6965     12.2432
C      3.8749      2.8583      4.7663
C     17.5625      9.8106     18.3418
C      6.1968     -0.8462      8.8658
C      6.9194     -3.4459      6.4415
C      5.6612      4.5792      8.0605
C      5.4414      0.4300      8.6561
H     -0.7395      3.3729      7.1963
H     21.0753     10.2567     12.5114
H      6.0137     -1.3322      9.7743
H     10.0631      5.6472      1.1527
C     14.1424      9.8099     13.5556
H      2.5208      3.2887     10.7671
H     10.6214     -2.8571      3.8461
