285

C     19.8668      8.6693     13.5067
N     10.6452     -2.0678      0.9885
C      3.6798      1.4123      7.1523
C      1.8965      2.4655      2.9928
H      1.3547      1.1339      9.8451
C      7.5393      4.9632      2.6105
H      9.8618     -5.7358      2.1101
C      7.5727      3.6978      3.1045
C      3.2875      4.1047      5.5934
C     19.1074     10.8211     12.0219
C     16.2067      7.5244     19.4872
C      5.9534      1.9170      3.9385
C      6.2370     -3.2120      8.9760
C     13.8349      8.7831     13.6743
C      9.2210     -0.7796     -0.5844
C      8.3185      0.7759      0.8332
N      0.5409      2.5298      6.0633
C     13.6587     -6.6885      0.8091
O     -1.3663      2.0812      1.5681
C      3.3054      4.2304      7.1051
H     13.1015      6.4681     11.3678
H      7.5373      1.2189      1.3911
C     15.8588      6.4453     17.1860
C     17.6291     10.5023     16.0380
H      4.3573      6.4003      1.0658
C     17.1190      9.0339     16.0147
H      4.6306      7.6279      8.9467
H     19.7955     11.7778     11.8096
H      3.9084      5.6310      8.7428
H     -0.7255      5.3189      6.8001
H      5.8076      1.4217      9.5259
C      3.1155      2.7271      7.8093
H     10.4016     -1.3480     -2.3141
H      7.0580      1.5576      3.9776
O     14.6403     10.3719     14.9845
C      8.0294     -0.9289      9.1328
C      9.6679     -1.8106     -1.5997
C      6.2539      5.9229      9.8482
H      1.5013      0.0816      8.9664
H     15.6757     -6.2333      9.4517
C      6.2540      3.0684      3.2141
H      6.2493      3.7605      7.4114
H     17.9711     11.2037     12.4818
H      4.0950     -0.9719      9.5555
H     15.4264     -4.7265      8.8151
C     17.7423     10.7839     17.4851
C     10.3804     -3.9272      4.6809
O     14.9405     -4.0238      4.5296
C     11.4411     -4.7198      7.0030
C      8.7527      8.0717     12.1471
C     20.4783      7.5461     12.9434
C      6.5939      6.7630     -0.6468
H      5.2569      4.7820      2.3642
H     17.1703      8.7895     14.0340
H      1.2514     -1.6742      3.8804
H      6.7872     -5.4963      9.2112
C      7.8706      2.3683      8.9685
H      0.4730      1.2968      2.1515
C      7.1883      6.5349     10.8895
C      8.0944      5.8757      3.4967
H      8.2571      7.2183      2.0215
C     -1.0830      6.8369      5.0680
H     16.1382      9.1720     21.4558
H     18.4220     10.5588     15.2681
H     16.9970      6.0851     15.8404
H     15.5632     -7.6918      0.8844
C      9.8278     -1.6141      7.7133
C      6.5322      4.7351      9.2728
C     15.8994      7.8533     17.9580
C      9.5867      1.3605      0.5896
C      5.5840      4.2201     -0.0895
C     17.4289      8.3602     14.8644
H      9.3498     -4.3494      5.2163
H      8.3243      8.0315      3.7569
H      3.3757      1.3882     10.6032
H      6.7073     -3.3350     10.0645
H     18.4790     12.4952     18.4587
C     -0.4354      3.7284      7.7457
H     21.1080     10.1677     13.8983
C     13.4616      8.4717     12.0368
C      1.7840      2.3781      8.1661
H     10.6978      7.0166     10.6586
H     11.2726     -3.4261     -1.7784
C     12.3777     -6.6466      1.4147
H      5.6921      7.5622     -0.5817
H      7.5278      7.2318      6.5903
C     10.2911      7.2235     12.6998
O     16.1494      9.7692     13.4065
C      6.9647     -4.0660      7.8716
C     16.6194      8.4805     20.3942
C      3.4559      1.5930      9.5891
C      2.9867      0.4990      5.4152
H     21.3202      8.6942     14.8288
H     10.4944     -1.4495      0.1911
H      6.6509      0.5425      6.9311
H     -2.3266      5.7829      6.5714
H      4.3416      6.1499     10.6762
C      3.9896      3.5107      3.4918
C     10.8183     -4.5753      0.5394
C     11.3633      6.6680     11.5989
H      8.6077      1.6386      9.6943
C      4.9987      2.4387      5.3234
H      2.2741     -1.6771      9.2446
H     18.4700     12.5756     16.7708
C      2.1545     -0.6017      8.7297
C      4.5536     -1.8049      7.5484
C     -2.0024      5.2063      3.6042
C     16.9249      9.9131     19.7206
C      2.6861      3.8155      2.8510
C      5.1074      6.8940      9.9019
H      1.6872     -1.0326      7.8266
H     15.5931      7.0170     13.0517
H      9.4897      0.2158     -1.1116
H     14.3267     -8.6899     -0.9881
O      5.6759      6.8304      6.4223
C     13.8064     -4.7888      4.4801
H      4.7687     -1.2114      6.8001
C     10.5315     -4.0767      3.2062
C     10.8027     -5.2758      2.6054
H      8.3495     -2.8280      8.7807
H      8.3446      3.4133      3.7259
C     10.0463     -4.8467      7.4277
H      9.2880      2.4879      0.6808
H     11.5322     -2.1080     -0.6672
H      4.4412      5.2199     -1.3316
C      2.7669      1.3492      2.8347
C     12.9571     -4.3888      1.8159
O      4.2349      4.6860     -0.3809
O      7.7963      3.4219     10.8131
C     -0.3938      2.8454      1.7858
C     -0.2092      4.0401      4.3102
C      7.0267     -1.9100      7.3254
H      8.7449     -1.9524     -2.3275
H     15.7705     10.2957     19.2359
H     12.5097     -2.8578      4.2661
H     12.5046      8.2747     10.3928
O     13.1104     -2.7561      6.3280
C      5.8471     -1.8695      8.3324
C     13.6011     -5.8482      6.6082
C     14.6354      7.3750     13.8260
H     15.5377      8.2587     15.5177
C     13.5085     -5.3133      2.8760
H      8.3910     -0.0010      8.7440
C      2.4155     -0.3674      4.3997
C      0.5210      2.7679      7.3977
C     10.5652     -1.9515      6.7314
C     -2.5864      3.7246      5.2485
C     18.0528     12.1535     17.5770
C      3.6193      4.2078      9.9574
C      0.6291      2.2804      2.5549
C     11.6893     -5.0726      1.4676
C      3.6344     -0.6869      8.5849
N      1.6300     -1.4982      4.8989
C      3.2042      1.5162      1.2190
O      5.2869      6.3514      1.2232
C      9.5146      6.0674      0.3030
H      6.0309     -3.2440      5.7869
C     -2.9887      4.4589      2.7886
C      9.9256     -5.8600      8.6238
H      8.0115      2.3330      7.8004
H      1.6733      0.2705      7.1513
H      7.9314     -3.4957      6.0570
C     10.6297     -3.2788      0.3971
H      5.4558      7.6813     10.4434
H     14.1834     -5.5639      9.3066
H     13.3023      9.5751     10.4655
H     13.8199     10.0388     15.4478
H      3.9378      2.2265      1.7180
H     -1.2569      2.4133      0.3037
H     -0.3063      4.2020      8.7073
C     14.9017      7.3972     15.2818
H      3.5039      0.6746      0.4700
C     14.1639      9.0621     11.0028
C     19.5559      9.8257     12.5557
H      7.4898      5.6197     11.3097
C     10.8396     -2.7880     -1.0374
H      0.8347     -1.3355      5.4553
C      4.2237      8.4575      4.4808
C      7.9210      7.2371      3.1255
C     20.6008      9.4401     14.4410
C     18.8682      8.2424     14.7122
C      4.2384      6.2876      6.4655
C      1.8724      4.9315      2.6764
C      6.2985      5.4710      0.4908
C      5.6345      7.9149      4.3062
C      8.4703      6.5363      1.0327
H     14.8479      9.7301     11.6495
C      4.3851      5.1128      7.7354
C     14.5133     -7.8007      1.1654
C      6.1700      7.0468      5.2498
H      1.0290      1.6033      5.9969
H     10.3834      0.4456      0.6057
H     -3.3214      5.0497      2.0223
C      7.4830      5.4249      1.2666
H     -0.3028      2.9162      3.8307
O      7.5551      7.5922      5.6180
H     20.0950      9.7489     15.3173
H     15.4603     -9.2698      0.9070
H      4.8501      5.8126      4.5132
C     12.5901      7.4844     11.3088
H      6.6019      5.2323      7.5472
C     15.7732      6.1250     15.7987
C     -1.3243      4.6177      4.9535
C      0.5471      6.9936      5.2825
H      5.4058     -3.8490      8.9413
H      3.6580      1.2292      5.0438
C      1.4630      5.9168      4.8022
H      1.7207     -0.7224      2.5797
H     16.7464     11.0178     15.8470
H      9.4839     -6.7521      8.8465
C      7.2588     -5.2191      8.3049
C      4.1960      0.6013      8.3685
C      6.3755      7.7134      3.1232
C     10.2823     -2.4193      5.2733
C     12.8564     -6.5900      2.8714
C     -1.4786      6.5337      3.6469
H     10.2573     -1.1593      8.5199
H     13.8183     -9.7729      0.1967
H     17.0601      7.3756     14.8233
H      5.2991      3.3063      0.5164
H     -3.3773      4.5188      5.1219
C      2.0002      1.7710      9.2700
H     11.4822     -1.3819      6.4106
C      0.7057      5.1585      3.4902
C      5.2217      3.9080      2.9305
H     14.2846     -7.7432      7.7285
H     17.7294      8.5308     20.5305
C      7.2997      3.5101      9.7454
H     10.2413     -2.1043      2.0372
H      6.5474     -1.0848      6.7435
C     14.9612     -5.7904      8.7426
C     -1.4785      5.5883      5.9940
C      2.5063     -0.2068      3.0297
C      1.7580      4.8552      5.7253
C     15.0181     -6.0783      7.3162
C     14.6387     -9.0392      0.1756
H     11.9003     -7.5385      1.6163
H      3.9545      1.2104      2.6004
H      9.5349     -3.9869      9.7869
H      2.5359      2.1905      0.7636
H      7.9756     -6.0049      8.0106
H      7.4317      1.4021      8.7970
H     11.0625     -1.6383      4.6692
C      8.0786     -0.6239      0.2613
H      4.9371      1.4202      3.5838
C     12.7434     -3.7275      5.0244
C      9.2961     -5.0368      9.5982
H      5.8319      4.0069     -1.0375
H      9.4854     -3.8252      2.7916
C      8.3753     -1.8520      8.1607
H     -2.7137      3.5257      2.3751
H      9.3157     -2.3983      4.5419
C     12.7009     -5.1453      7.4672
C      0.9093      3.6536      5.2784
O      8.4662      5.7846      4.7085
C     11.5959     -4.4752      5.4426
C      6.1691      1.3505      7.2174
C      5.0046      1.6652      6.4832
C      2.6190      0.5668      6.7013
H      6.6031      2.2296      7.4477
H      4.8307      3.0933      8.6235
H      8.0978     -1.5515     10.0772
H     17.0939     12.6481     17.6747
C     15.1356     -7.6368      7.1604
H     -0.4513      3.7705      1.4606
C      4.1028      5.6765      5.1469
C      3.8973      2.8691      9.2236
H      7.5044     -1.3945      0.5540
H     13.6774     -7.3577     -0.2032
C      8.2686      7.6688     10.8015
H      2.7336      4.8371     10.0261
H     11.4251      5.6373     12.1565
C      3.9956      3.0626      4.8213
C     17.2439      9.8457     18.2693
C      6.2339     -0.6097      8.9533
C      7.0989     -3.2167      6.6142
C      5.6729      4.5279      7.9089
C      5.7448      0.8628      8.5281
H     -1.1778      4.0827      7.0968
H      8.6046      9.0952     12.2448
H      6.1445     -1.0697     10.0381
H     10.3825      5.4152      1.0001
C     14.9567      9.6666     13.9344
H      4.6053      4.5805     10.1418
H     11.1390     -3.2780      2.5611
