290

C      7.0216      8.7651     13.6248
N     11.0861     -2.4081      1.4315
C      3.8649      1.4345      6.9966
C      1.9106      2.2331      3.1593
H      0.9618      0.7591      9.0528
C      7.5687      5.0997      2.4800
H      9.5022     -5.7732      3.3442
C      7.3860      3.6395      2.7426
C      3.5714      4.1562      5.8281
C      5.6147     10.7031     12.2012
C      3.3066      7.5236     19.5072
C      6.0743      2.1252      4.1689
C      6.2255     -3.1281      8.7145
C      0.8338      8.5874     13.5463
C      9.2372     -1.0417     -0.6659
C      8.2452      0.5539      0.8660
N      0.8505      2.5609      6.3194
C     13.8832     -6.7300      0.6202
O     -1.0955      2.7072      0.7801
C      3.3602      4.3310      7.3489
H     -0.2101      7.0088     10.8239
H      7.4246      0.5390      1.5536
C      2.9085      6.2347     17.3347
C      3.9845     10.5430     16.1909
H     -1.4036      2.6868      6.0436
H      4.9629      5.1882      0.8522
C      4.2302      9.1516     15.9570
H      4.6791      7.6145     -3.6701
H      5.5019     10.5977     11.1356
H      4.1335      6.2499     -4.1433
H     -1.0855      4.8962      6.4852
H      5.4802      1.3244      9.7043
C      3.0496      3.1168      8.2086
H     10.2189     -1.8223     -2.7523
H      7.0363      2.0492      4.5687
O      1.4195     10.1338     15.5467
C      7.8700     -0.6758      9.0355
C      9.6876     -1.8923     -1.7496
C      6.5048      6.0149     -3.2664
H      1.8083     -0.1906      8.5849
H      2.7440      5.8595      9.4332
C      6.1804      3.3038      3.3400
H      5.0413      3.7235     -5.2671
H      4.0744     -1.2906      9.3689
H      2.4101      7.6348      9.3291
C      4.5948     11.0165     17.5380
C     10.0924     -4.0380      4.9609
O     14.9884     -4.1833      4.8427
C     -1.4410      8.0731      7.0695
C     -4.1447      7.8183     11.9556
C      7.6758      7.5383     13.0012
C      6.6362      6.7994     -0.6303
H      5.2691      5.0056      2.5283
H      4.4872      9.7331     14.0612
H      0.4823     -1.8965      4.9142
H      7.0472     -5.4908      9.3345
H      2.9288     10.8374     12.9829
C      8.1728      2.8844     -4.0195
H      0.2660      1.2662      1.9730
C      6.9607      6.1196     -1.9362
C      8.2662      5.9132      3.4458
H      8.6294      7.9547      2.4633
C     -1.1395      6.7251      5.2537
H      3.3047      8.3629     21.2525
H      3.6392     10.8472     15.1974
H      3.6846      5.9651     15.3903
H      4.2973      4.4728     10.3036
H     15.8399     -7.4632      0.6768
C      9.5466     -1.6100      7.7601
C      6.4703      4.7427     -3.8561
C      3.1808      7.7560     17.8667
C      9.5054      1.2895      1.0684
C      5.4731      4.6714     -0.4069
C      4.7459      8.8470     14.7146
H      8.2302      7.6894      3.9734
H      3.3439      0.6292     10.3035
H      6.7475     -2.6591      9.5953
C     -0.4736      3.3590      7.9507
H      8.7558      8.8447     14.7689
C      0.1948      8.7448     12.0683
C      1.8592      2.6324      8.3485
H     -1.7187      6.2007     11.1125
H     12.1299     -3.1604     -1.1118
C     12.5350     -6.5649      1.4059
H      5.7027      7.3360     -1.1148
H     -1.5218      2.0028      4.5551
H      7.7053      7.1334      6.8295
C     -2.9044      7.5365     12.5031
O      2.7379     10.2482     13.7256
C      7.0961     -4.0362      7.9626
C      3.8065      8.6858     20.4098
C      3.3427      1.3579      9.4618
C      3.0509      0.3068      4.8176
H      8.0929     10.3208     14.9658
H     10.7424     -2.6336      2.3505
H      7.0907      0.9977      7.1737
H     -2.6348      5.8197      6.0457
H      4.6718      6.4463     -2.0992
C      3.6684      3.7775      3.5556
C     11.0167     -4.6374      0.4944
C     -1.7018      6.7807     11.9571
C      5.1168      2.2931      5.1500
H      2.3934     -2.0655      9.3023
H      5.0811     12.7410     16.7609
C      2.2349     -1.3308      8.5959
C      4.6791     -1.7041      7.3419
C     -2.2296      5.1205      3.5338
C      3.8001     10.0616     19.3858
C      2.6716      3.4828      2.7366
C      5.0912      6.8446     -2.9970
H      1.7314     -1.7328      7.5281
H      2.5813      7.2199     13.1757
H      1.0976     11.3161     12.4861
H      8.8738      6.1246      5.2523
H     10.0371     -0.4923     -0.2673
H     15.4099     -9.5336      0.0679
O      5.4767      6.7761      6.3510
C     13.7726     -4.7276      4.5001
H      5.2104     -0.8804      6.6704
C     10.2656     -3.7237      3.5534
C     10.5020     -5.4582      2.8342
H      8.1124      3.0401      3.1679
C     -2.6652      8.4772      7.7639
H      9.5615      2.2964      1.3650
H      2.2664      1.7390      3.9943
H     11.5101     -1.6829     -0.5570
H      3.5009      4.8954     -1.2015
C      2.8125      1.1198      2.3550
C     12.9456     -4.3809      1.8504
O      4.0109      5.1986     -0.4375
O      7.2908      3.7362     -1.9926
C     -0.3081      3.1358      1.7121
C     -0.0741      4.0116      4.1118
C      7.0841     -2.0400      7.0720
H      8.9904     -2.6365     -1.9220
H      2.6717     10.4528     19.0841
H     12.1822     -3.2959      3.8704
H     -1.3631      8.2991     10.6565
O     12.7405     -2.7364      5.8451
C      5.9768     -1.8951      7.9133
C      0.8650      7.4403      6.7334
C      1.7704      7.4171     13.8288
H      2.8889      8.3123     15.6690
C     13.7505     -5.1387      3.0817
H      8.3521      0.4420      8.5800
C      2.2622     -0.5525      4.0834
C      0.7166      2.9293      7.5347
C     10.2692     -1.9441      6.7509
C     -1.8506      3.0426      5.1525
C      5.4531     11.9850     17.2883
C      3.4789      3.9912     10.3234
C      0.5114      2.2514      2.3105
C     11.8044     -5.3201      1.4254
C      3.7077     -0.8423      8.5322
N      1.5060     -1.4185      4.8381
C      2.5900      1.4286      0.7137
O      4.9530      6.0436      1.2581
C      9.7775      6.3645      0.7939
H      5.4130      8.8717     18.7066
C     -2.6019      4.3456      2.4641
C     -2.9516      7.5078      8.8618
H      7.8527      2.9514     -5.0956
H      1.9388     -0.1316      6.5168
H      7.3438     -4.0343      5.9280
C     10.4774     -3.2782      0.4078
H      5.6588      7.7260     -2.7233
H      1.3276      6.9393      9.3579
H     12.4687     -3.5328      2.3888
H      1.3289      8.8977     10.1369
H      3.4214      1.4492     -0.0757
H     -0.6791      2.4854     -0.0836
H     -0.2822      3.9353      8.7907
C      2.1142      7.4717     15.2687
H      1.6800      0.5814      0.1372
C      1.2433      9.1219     11.1780
C      6.5893      9.7970     12.3591
H      7.5789      5.2525     -1.6844
C     11.0680     -2.6502     -0.9620
H      1.5247     -1.0264      5.7652
C      4.4220      8.3038      4.2749
C      8.0427      7.3056      3.1247
C      8.1456      9.6271     14.0713
C      6.2593      8.4495     14.7687
C      4.2396      6.4815      6.5289
C      1.7852      4.8077      2.5089
C      6.0325      5.8359      0.2534
C      5.6674      7.5532      4.1677
C      8.2762      6.4782      0.7548
H      2.3717      9.4987     11.7704
C      4.2414      5.3475     -5.0459
O      0.3713     10.9120     13.0961
C     14.7318     -7.9008      1.0067
H     -3.4641      8.5186      6.9483
C      6.2495      7.0226      5.2792
H      1.6856      1.6616      6.2762
H     10.3334      0.9313      0.4218
H     -3.2764      4.2123      1.3383
C      7.2361      5.5882      1.2663
H     -0.5713      3.5467      3.2399
O      7.8166      7.1177      5.8662
H     -5.7912      8.2724     10.2865
H      9.3930      9.5543     13.4547
H     13.7245     -9.5368     -0.2520
H      4.8641      5.4488      4.3068
C     -0.6916      7.7080     11.3192
C      2.7728      6.1396     15.9260
C     -1.4934      4.3123      4.7111
C      0.5580      6.9905      5.4197
H      5.2045     -3.4009      8.8558
H      3.2067      2.1928      4.7811
C      1.4744      5.7893      4.7945
H      1.4777     -0.8665      2.1097
H      1.8284      9.5603     16.2568
H     -3.3267      6.2751      8.9523
C      7.2540     -5.3864      8.1204
C      4.0741      0.7143      8.2565
C      6.6323      7.7478      2.8867
C      9.7028     -2.5674      5.6781
C     12.7367     -6.6495      2.8849
C     -1.6121      6.3940      3.7577
H     10.5383     -1.5039      8.6155
H     14.9211     -8.4903     -0.8937
H      4.4040      7.6305     14.5581
H     -2.7406      2.7172      5.4393
C      1.8929      1.4793      9.0346
H     11.3825     -1.9352      6.6023
C      0.6795      5.1515      3.4996
C      5.0499      4.0682      2.8457
H      1.3756      4.7780      7.9279
H      4.8885      8.3014     20.4552
C      7.2762      3.6633     -3.2096
H     10.6837     -1.5129      1.1000
H      7.1011     -1.4063      6.0700
C      2.2612      6.8132      8.8966
C     -1.6119      5.4745      5.7774
C      2.2875     -0.2090      2.7718
C      1.5104      4.5677      5.6666
C      2.0355      6.6986      7.4372
C     14.6680     -8.8902     -0.0788
H     11.8436     -7.2901      1.4274
H      3.7877      1.5119      2.5055
H     -3.1370      9.2251     10.3402
H      2.0958      2.2511      0.7874
H      7.3335     -6.4268      7.8161
H      7.8168      2.0424     -3.5929
H      9.6160     -1.6243      5.1065
C      8.1010     -0.5166     -0.0455
H      6.0109      1.2367      3.5487
C     12.6155     -3.6695      4.8061
C     -3.5185      8.2691      9.9338
H      5.2707      4.0748     -1.4278
H      9.0406     -3.6388      3.0918
C      8.3039     -1.8459      8.2522
H     -2.4056      3.2548      2.8498
H      8.7122     -2.9435      6.1218
C     -0.3559      7.6095      7.8396
C      0.7869      3.5495      5.1795
O      8.7962      5.3971      4.6347
C     11.4749     -4.7389      5.5680
C      6.0798      1.3804      7.5914
C      5.1918      1.7839      6.3238
C      2.8372      0.6373      6.1495
H      6.3915      2.3527      8.0416
H      4.7540      2.9376      8.9038
H      7.4243     -0.6236     10.2038
H     13.3761     -3.1407      6.5951
H      3.8267      0.4967      4.2908
H     -0.3037      7.4174      8.8584
C      2.0065      4.9234      7.0535
H     -0.8324      3.9181      2.1314
C      3.8714      5.4698      5.1261
C      3.8328      2.9525      9.3577
H      7.1220     -0.8527      0.1665
H     13.4792     -6.5928     -0.5203
C     -4.7758      7.6911     10.6541
H      2.9833      3.6814     11.2931
H     -1.3057      6.2555     12.7898
C      3.7619      2.9891      4.8762
C      4.7661      9.7438     18.3744
C      6.3228     -0.7391      8.8143
C      7.3934     -3.4477      6.8148
C      5.5755      4.8119     -5.0676
C      5.4602      0.7025      8.7185
H     -1.4387      3.6048      7.4516
H      7.1171      9.4933     11.4462
H      5.9886     -1.2054      9.7131
H      9.4839      5.2450      0.3644
C      1.4693      9.8612     14.0275
H      2.7059      4.2903      9.6492
H     11.0870     -2.8670      3.5108
