290

C      7.2196      8.7046     13.6897
N     10.7571     -2.4359      1.0079
C      3.6037      1.5249      7.2511
C      1.9582      2.7256      2.8872
H      1.0260      0.5114      9.4591
C      7.8256      5.2957      2.5740
H      9.6203     -5.2466      2.4789
C      7.8788      3.7647      3.2103
C      3.4457      3.8915      5.7049
C      6.2867     10.4002     11.6475
C      3.2009      7.3914     19.6720
C      6.2260      2.2292      4.1899
C      6.2802     -3.3434      8.6976
C      0.8564      8.6827     13.5836
C      9.1603     -1.0611     -0.2816
C      8.0456      0.8312      0.6885
N      1.1364      2.4369      5.9264
H      5.2475     10.2997     11.4924
C     13.5167     -6.6996      0.7298
O     -0.7942      2.5201      0.3002
C      3.2343      3.9453      7.3197
H      0.6021      6.8782     10.8143
H      7.1152      1.2444      1.1960
C      2.7694      6.3018     17.2042
C      3.8106     10.7524     16.4692
H     -1.3658      2.5261      5.8824
H      4.3426      6.0929      1.2188
C      4.0254      9.3487     16.0272
H      4.7416      7.4611     -3.7709
H      6.8134     10.8338     10.8682
H      4.1768      5.5409     -4.3625
H     -0.6786      5.0565      6.7023
H      5.7613      1.2154      9.5237
C      3.0756      2.7781      8.0735
H     10.3443     -1.2021     -1.9341
H      7.2486      2.0314      4.4538
C      7.5361     -0.7344      9.1386
C      9.6376     -1.6892     -1.4602
C      6.1530      5.9159     -2.8874
H      1.7122      0.0588      8.1658
H      1.9356      6.1112      9.3772
C      6.6724      3.4332      3.5377
H      5.2803      3.3250     -5.0371
H      3.8712     -1.6337      9.2604
H      3.2926      7.4207      8.8689
C      4.6439     11.0056     17.4227
C     10.0459     -4.3553      5.0075
O     15.0013     -4.1614      4.8314
C     -1.5760      8.2450      7.1253
C     -3.9283      7.9318     11.8993
C      7.8362      7.6168     12.7795
C      6.7434      6.8499     -0.7646
H      5.7722      4.5090      2.2065
H      5.0130     10.3809     14.5043
H      2.2722     -2.3748      4.7673
C      7.8243      2.4706     -3.8132
H      0.7243      1.4246      2.3783
C      7.0805      6.3390     -1.9756
C      8.3231      6.1460      3.3510
H      8.0114      8.0295      2.1386
C     -0.9709      6.8904      5.1179
H      3.8508      8.8800     21.6172
H      4.1442     11.3418     15.6967
H      3.6532      6.5861     15.2666
H      2.7909      4.5854      9.7526
H     15.3167     -7.2550      0.5395
C      9.5159     -1.4925      7.6749
C      6.3686      4.6688     -3.6211
C      3.1582      7.8678     17.9204
C      9.3322      1.3311      0.8358
C      5.7712      4.5632     -0.0045
C      4.9098      9.3187     14.7211
H      9.3415     -5.0805      4.8946
H      7.9709      8.2089      4.1090
H      3.2948      0.5040     10.6824
H      7.0112     -2.9593      9.2765
H      5.6532     12.2617     18.5232
C     -0.2191      3.2536      7.7691
H      8.3837      9.9472     15.2984
C      0.7314      8.5364     11.8399
C      1.8188      2.3132      8.3470
H     -1.6011      6.1945     10.8520
H     10.0910     -3.6147     -2.1928
C     12.1949     -6.6075      1.5236
H      5.9387      7.4586     -0.5824
H     -1.8481      2.1933      3.9861
H      7.9705     -5.7179      7.2967
C     -2.6345      7.3947     12.3673
O      2.3979     10.5810     13.2915
C      6.2773     -4.3486      7.7131
C      3.8689      8.7339     20.3223
C      3.5502      1.1986      9.8215
C      2.9985      0.1372      5.2290
H      8.3382     10.1159     13.4204
H     10.3787     -2.4709      1.9167
H      6.8822      1.2801      6.7141
H     -2.4727      5.8477      5.9035
H      4.0805      6.4434     -2.5982
C      4.1097      3.8109      3.3892
C     10.8492     -4.6887      0.4216
C     -1.3671      6.8549     11.6619
H      8.6936      1.6300     -3.2455
C      5.3061      2.1544      5.3869
H      1.7507     -1.3316      9.5234
H      5.3429     13.0359     17.0982
C      2.1401     -0.9513      8.2666
C      4.5367     -1.6574      7.3621
C     -2.0317      5.0406      3.7411
C      3.8026     10.0570     19.6439
C      2.8933      3.8118      2.5839
C      5.1051      6.9771     -2.8831
H      2.2119     -1.4680      7.3106
H      2.3380      7.2622     13.0644
H      9.2874      6.5407      4.6302
H     10.0313     -0.7004      0.2553
H     15.1203     -9.8273      0.4746
O      5.5797      6.3361      6.3925
C     13.7144     -4.7008      4.5455
H      4.9330     -1.0334      6.3416
C     10.1981     -3.9471      3.5515
C     10.8032     -5.0346      2.9558
H      8.2151     -2.8194      8.3585
H      8.7777      3.3162      3.7981
C     -2.7525      7.7793      7.4714
H      9.7347      2.0889      1.5539
H      1.6035      2.8470      4.0203
H     11.6245     -2.3108     -1.1275
H      4.9073      5.8852     -1.1310
C      2.5472      1.2798      2.4124
C     12.7634     -4.2537      1.7805
O      4.5730      5.0707     -0.6293
O      7.6418      3.8805     -1.7100
C     -0.2373      3.0788      1.3401
C     -0.0613      4.0119      4.1093
C      7.0366     -1.9400      7.0407
H      8.6484     -2.1292     -1.9573
H      2.7217     10.3576     19.7836
H     12.2632     -3.2283      4.3350
H     -0.3843      8.1350     10.2354
O     13.1547     -3.0205      5.9857
C      5.9084     -1.9656      8.0357
C      0.7864      7.4373      6.8924
C      1.6454      7.4634     13.8648
H      3.1336      8.4778     15.6639
C     13.6886     -5.1698      2.8527
H      7.5475      0.4911      8.9880
C      2.1706     -0.6046      4.2198
C      0.6846      2.2215      7.4459
C     10.2408     -2.0956      6.6538
C     -2.0310      2.8704      4.8878
C      5.4119     12.0849     17.3741
C      3.2287      3.8944     10.3875
C      0.5354      2.4562      2.2149
C     11.7399     -5.1940      1.4779
C      3.5519     -0.9584      8.4149
N      1.6080     -1.6126      4.9628
C      2.2910      1.0551      0.9287
O      5.1771      6.1748      1.5687
C      9.7411      6.3864      0.3719
H      5.6381     -3.4480      5.7416
C     -2.3801      4.4519      2.5409
C     -2.5472      7.6110      8.9353
H      8.1984      2.8684     -4.7791
H      1.6891      0.5220      6.7036
H      7.3637     -3.2863      5.6374
C     10.5967     -3.4101      0.0080
H      5.4324      7.9606     -2.3977
H      1.5756      7.6253      9.0999
H     12.4724     -3.1773      2.0052
H      1.9418      9.1662     10.1657
H      2.5388      1.7320      0.1514
H     -1.2746      3.0212     -0.4856
H     -0.5049      3.7575      8.8024
C      2.1158      7.6291     15.2517
H      1.7488      0.1698      0.6858
C      1.5826      9.2557     11.1024
C      7.0399      9.7055     12.4094
H      7.9919      6.0153     -1.6805
C     10.6126     -2.9204     -1.3215
H      0.7529     -1.7368      4.6714
C      4.4504      8.4611      4.4243
C      7.7764      7.5230      3.1577
C      8.4462      9.3877     14.2535
C      6.0960      8.4986     14.8068
C      4.1864      6.0328      6.5117
C      2.0040      5.0126      2.3811
C      6.3088      5.8655      0.4148
C      5.5728      7.4536      4.1241
C      8.4313      6.5301      0.6285
C      4.3724      4.9735     -5.2642
C     14.4449     -7.8147      0.9174
H     -3.6092      8.2570      7.3220
C      6.2078      7.0457      5.3182
H      0.6654      1.5718      5.4424
H     10.1369      1.2218      0.0789
H     -3.0436      4.8546      1.7009
C      7.3704      5.6470      1.2625
H      0.0790      3.1754      3.3099
O      7.4745      7.3223      5.5311
H     -5.4822      8.4000     10.3928
H      9.1489      8.6288     13.9644
H     13.8905     -9.0678     -0.9225
H      4.6570      4.9256      4.8362
C     -0.1117      7.5272     11.1912
H      6.4339      4.4645     -5.6651
C      2.7110      6.4293     15.7193
C     -1.3262      4.3489      4.7815
C      0.5687      7.0925      5.3579
H      5.3973     -3.6476      9.1219
H      3.1062      2.4877      4.6614
C      1.4489      5.8095      4.8416
H      2.0501     -0.9181      1.9900
H     -2.7211      6.4232      8.7208
C      7.1100     -5.4915      7.8600
C      3.9293      0.5625      8.5784
C      6.3492      7.6384      2.9296
C      9.4843     -3.0474      5.7682
C     12.7139     -6.5069      2.9260
C     -1.4457      6.5634      3.7455
H     10.5670     -1.2472      8.2451
H     15.5804     -8.8824     -0.6836
H      4.1186      8.5555     14.1577
H      5.7464      3.6079      0.7332
H     -2.9108      2.9229      5.4993
C      2.0387      1.1985      9.3871
H     11.2578     -1.8994      6.6716
C      0.7896      5.1903      3.4907
C      5.4397      4.1456      3.2113
H      1.0770      4.6054      8.0977
H      5.1695      8.3162     20.4615
C      7.4234      3.6830     -2.9964
H     11.5655     -1.8767      0.9752
H      7.1227     -1.4330      6.0877
C      2.3497      7.0116      8.8761
C     -1.3794      5.5481      5.8240
C      2.3129     -0.1041      2.8852
C      1.3822      4.9051      5.9743
C      2.0590      6.6262      7.3469
C     14.7624     -8.9941     -0.0346
H     11.5461     -7.3098      1.2487
H      3.6819      1.3321      2.7080
H     -4.1491      9.3327      9.3354
H      1.3405      1.4667      0.7079
H      6.9040     -6.0372      8.7293
H      6.9611      1.5278     -3.9117
H      9.1275     -2.5151      4.9180
C      7.9255     -0.3966     -0.1916
H      5.7243      1.3676      3.6752
C     12.6569     -3.8112      5.0571
C     -3.5563      8.2525      9.5408
H      6.7721      4.1137     -0.6635
H      9.2471     -3.8996      3.2209
C      8.2204     -1.7455      8.0451
H     -2.9027      3.5018      2.5814
H      8.6959     -3.5445      6.1593
C     -0.1796      7.7274      7.8132
C      0.9431      3.5626      5.3910
O      8.9275      5.7377      4.5858
C     11.5923     -4.7780      5.6926
C      6.0554      1.5889      7.3966
C      4.9377      1.4599      6.4777
C      2.8024      0.4880      6.4905
H      6.0140      2.4756      8.1763
H      4.7350      2.9042      9.6354
H      7.9868     -1.2912     10.0146
H     12.7242     -2.4777      6.8727
H      3.9780      0.3928      4.7596
H     -0.5921      7.8007      8.9680
C      2.0173      5.0687      7.2636
H     -0.5521      4.2743      1.6032
C      3.8406      5.3180      5.3916
C      3.6983      2.7146      9.5846
H      7.1163     -0.4624     -0.7533
H     13.7045     -6.6241     -0.4373
C     -4.4329      8.0749     10.5977
H      3.9713      4.3223     11.1888
H     -0.8229      6.2396     12.3220
C      4.0168      2.9288      4.8026
C      4.6343      9.7495     18.3070
C      6.1498     -0.8547      9.0283
C      6.6701     -3.2963      6.5121
C      5.6549      4.3998     -4.8514
C      5.4774      0.4633      8.6074
H     -1.0535      3.0861      7.3331
H      8.2472      9.1900     12.0942
H      5.5067     -1.2847      9.9369
H     10.0388      5.4696      0.2077
C      1.4116     10.0221     13.9510
H      2.0539      3.6849     10.5363
H     10.7969     -3.0630      3.6816
