283

C     -6.2182     -3.8018      0.8788
N     -1.6026     10.7212      0.8904
C     16.8159      1.4201      7.3447
C    -10.7088      2.4795      2.3933
H     14.0122      1.2958     10.2837
C     -5.1951      4.8955      2.2516
H     -3.2058      6.4190      1.9088
C     -5.1344      3.4608      2.6958
C     16.2067      3.8825      5.6113
C     -6.7886     -2.8892     -1.5704
C      3.6182      7.2315      6.8082
C     19.1907      1.6702      4.3154
C      6.3140      9.4221      8.7976
C      0.9705      8.8344      0.7676
C     -3.7493     12.2503     -0.1463
C     -4.7493     14.0838      1.1539
N     13.3278      2.4739      6.0274
H     -7.2395     -3.7065     -2.0855
C      0.7069      6.2924      0.8829
O    -14.3107      3.1749      1.1069
C     16.3896      4.0327      7.1897
H     -0.4296      7.8548     -2.6127
H     -5.4733      2.8306      1.7019
C     15.7990      6.1646      4.7175
C     -9.1286     -2.2700      3.3244
H      9.7521      3.3522      5.2981
H     17.1863      6.6686     13.3574
C     -9.2202     -3.6796      3.1239
H     18.5172      7.9590      9.6703
H     -6.0714     -2.3130     -2.1781
H     19.1782      3.1612      5.7164
H     16.8148      5.0480      8.7200
H     12.5327      5.3881      6.5593
C     16.3356      2.6287      8.1365
H     -3.0059     11.7935     -2.1841
H     20.2569      1.5585      4.7716
C      7.8176     12.3989      8.5736
C     -3.7488     11.3135     -1.3333
C     19.6011      5.9160      9.7625
H     14.9640      5.5884      9.4761
C     -6.3535      2.8076      3.0955
H     18.3510      3.4446      8.5163
H      4.4384     12.0443      9.3031
H     16.0841      6.8488      9.3490
C     -8.9406     -1.9390      4.5732
C     10.0364      8.4714      5.1960
O      1.9319      8.7962      5.2157
C     11.4503      7.9499      7.1223
C     -4.2741      8.1096     -0.6705
C     -5.4718      7.4979     -0.0278
C     19.6530      6.6197     12.1591
H     -7.4841      3.8235      1.6662
H     19.0345      3.4513     12.2741
H     -8.2371     -3.1016      1.5898
H    -11.4513     -1.3298      5.8651
C     21.3284      2.8716      8.8190
H    -12.4282      1.3522      2.0346
C     20.2097      5.5159     11.0314
C     -4.7275      5.8953      3.0504
H     -4.6353      7.9637      2.5475
H     -5.7314     14.4961      0.8714
C     11.9932      6.7139      5.2190
H      3.7115      7.8527      8.6681
H     -9.1004     -1.4809      2.4889
H     17.0707      6.5963      2.8473
H     16.9862      4.0761     10.6556
H     15.5161      5.9480      0.5378
C      9.8326     11.5248      6.9620
C     19.9060      4.9552      8.6168
C      3.0303      7.5602      5.3831
C     -3.5736     14.7726      1.2449
C     18.4497      4.2860     12.4030
C     -8.5145     -4.0593      1.7860
H      9.2173      7.7873      5.1786
H      8.8669      8.2167      3.7267
H     16.2027      0.9514     10.7898
H      6.7267      9.1289      9.7934
H     18.1655      0.4694      5.9601
C     12.7640      3.7114      8.0700
H     -4.3144     -3.0699      2.5127
C      0.6226      8.5800     -0.6789
C     14.6968      2.2572      8.2303
H     -2.2159      6.3976     -1.8051
H     -3.1446      9.5436     -1.8975
C     -0.4650      6.4787      1.6528
H     18.8765      7.0375     11.5055
H     10.8837      2.3410      6.0032
H      9.0249      7.7294      7.7292
C     -3.0365      7.5413     -0.1001
O      3.0275     10.3788      0.4135
C      7.2018      8.7123      7.6587
C      4.0740      8.1934      7.6793
C     16.4163      1.1087      9.6590
C     -9.7277      0.2969      4.9636
H     -5.3404     -1.9861      1.5596
H     19.9946      0.5613      6.6870
H     10.9235      5.5242      6.7107
H     18.2256      6.4129      8.7230
C     -8.7585      3.4354      3.4283
C     -2.5142      8.5046      0.8289
C     -1.3534      6.8668     -0.9484
H     21.2630      1.8289      9.3764
C     18.3300      2.5592      5.3372
H      1.1478     11.2778      9.2288
H     -7.7654     -0.2422      4.5356
C      2.1844     11.8496      8.8197
C      4.4986     10.9904      7.5922
C     11.1476      5.1776      3.6893
C      3.8659      9.7083      6.9301
C    -10.0636      3.7119      2.9556
C     18.3874      6.8309      9.8076
H      1.3513     12.2880      7.9343
H      2.5024      7.4774      0.7501
H     -3.0364      5.5765      4.6157
H     -2.8238     12.7504      0.2359
H     16.1703      4.3099      0.2857
O     18.6440      6.6115      6.4596
C      0.7160      8.0922      4.7756
C      9.9332      8.4656      3.6751
C     10.7489      7.4014      2.9687
H      8.5038     10.3375      8.1498
H     -4.0566      3.4090      2.9729
C     10.4992      8.5155      7.9589
H     -3.3167     15.9845      1.4755
H     -1.4239     10.9397     -1.5322
H     18.2385      4.2094     10.6523
C     -9.9084      1.1110      2.4318
C      0.0992      8.7988      2.2401
O     17.9777      4.8922     11.3463
O     20.0039      3.1399     10.4562
C    -13.1362      3.2915      1.2625
C     12.9746      4.2044      4.2903
C      6.7960     10.8003      6.7532
H     -4.3875     10.5578     -1.4861
H      2.9751      9.9215      7.0612
H     11.9466      9.3786      4.1586
H     -1.2219      8.6093     -1.6756
O     13.1539     10.2663      5.7155
C      5.9363     10.8643      7.9464
C     13.6061      6.6619      6.8644
C      1.5950      7.6157      1.2281
H    -10.2644     -4.3685      2.7631
C      0.6875      7.7618      3.2164
H      7.7510     13.5177      8.4897
C    -11.0988     -0.1081      4.3270
C     13.7218      2.8551      7.3730
C     10.4100     10.6612      6.1828
C     10.8565      3.2333      5.2497
C     -8.5776     -0.5464      4.9917
C     16.0147      3.4299     10.4268
C    -12.1742      2.4723      2.1370
C     -1.3090      7.8648      1.8991
C      3.7222     11.8447      8.4955
N    -11.9308     -0.6614      5.2240
C    -10.2928      0.5318      0.9439
O     17.6370      5.8742     13.7925
C     -3.6700      6.4313      0.9063
H     18.5832      9.6151      5.3429
C     10.5287      4.4511      2.8176
C     10.3400      8.3181      9.4688
H     22.4523      3.3115      8.3876
H      7.9738      9.0676      5.8393
C     -2.2828      9.8805      0.1744
H     17.3877      6.3227     10.2632
H     14.3583      7.0071      9.3212
H      0.0519      9.7987      2.2941
H      1.8504      8.0493     -2.3342
H    -10.1709     -0.5482      0.9090
C     15.0239      7.5237      2.6234
H    -11.3113      1.2234      0.5602
C      1.9041      8.4738     -1.3480
C     -6.5513     -2.8280     -0.2465
H     21.0661      4.7966     10.8276
C     -2.6182     10.3497     -1.2545
H    -12.2989     -0.9431      4.2339
C     16.9467      8.4196      4.5327
C     -5.3183      7.2353      2.6556
C     -5.1087     -3.0017      1.3795
C     -7.1430     -4.5290      1.8165
C     17.4362      5.9587      6.5419
C     15.0991      5.0914      2.5932
C     18.8433      5.7348     13.2614
C     18.4174      7.3266      3.9340
C     -5.0510      6.6801      1.1222
H      2.5762      8.9895     -0.8541
C     17.2799      5.1610      7.7596
O      1.1307     11.1882      1.0096
C     14.7047      5.2978      1.2193
C     19.1351      6.9957      5.2541
H     12.4894      2.2116      5.9379
H     -2.5951     14.2728      0.8003
H     10.0990      4.2734      1.9253
C     20.0389      5.6131     14.1276
H     12.6415      3.6420      3.4558
O     20.3614      7.3499      5.2963
H      7.3931      8.8267     10.9012
H     -3.2518      8.8593      1.3197
H     14.8048      3.0072      0.3432
H     18.1119      5.2548      4.5729
C     -0.3947      7.9140     -1.5493
H     18.8480      4.1195      7.0506
C     15.8871      6.4123      3.0203
C     11.5805      4.4502      4.9002
C     13.4944      6.7440      5.3479
H      5.5260      8.9395      8.8165
H     15.0883      1.9527      6.2230
C     14.5196      5.7331      4.9015
H    -11.7254     -0.1568      2.2798
H     11.1313      7.7861     10.0091
C      7.8526      7.5793      7.8932
C     17.2305      0.4382      8.5703
C     19.1824      7.8887      3.0109
C      9.9458      9.9843      5.1892
C     12.8765      6.4354      3.1736
C     11.7073      6.5792      3.8009
H     10.4506     12.3474      6.7275
H     14.6649      4.4473     -0.7539
H     -8.6722     -4.8998      0.9371
H     17.5376      4.5231     13.2203
H     10.5792      2.4023      4.4476
C     14.8852      1.4654      9.2760
H     11.2826     11.3819      6.1592
C     13.8257      5.2116      3.5234
C     -7.6491      3.3610      2.6794
H     14.1744      4.2733      7.9983
H      5.1025      7.9191      7.2218
C     20.3161      3.5763      9.3558
H     -1.9170     11.7118      1.0310
H      7.0425     11.8263      6.3971
C     15.0467      6.3721      8.9041
C     11.6897      5.4645      5.8538
C    -10.9378      0.1493      3.0637
C     14.7087      4.4285      5.8524
C     14.7664      6.0554      7.4161
C     15.0938      4.1020      0.1725
H     -1.2394      5.7167      1.6503
H     -9.1696      1.1917      3.2415
H      8.4747      9.0515      9.2217
H     -9.5044      0.7411      0.3365
H      7.2600      6.8604      7.2526
H     19.7173      2.0950      7.6845
H     10.5815     10.3809      4.4743
C     -4.8290     12.7645      0.5041
H     18.3571      1.2977      3.7783
C     12.5223      9.0543      5.0688
C      9.0947      8.6308      9.8286
C      8.9123     11.4812      7.9292
H     10.7484      3.2712      2.7442
H      8.9286     10.0831      4.9708
C     12.7120      7.3810      7.4933
C     13.9694      3.3801      5.1752
O     -4.1796      5.5246      4.3605
C     11.4521      8.0632      5.7286
C     19.3557      1.1488      7.1674
C     18.0581      1.5823      6.5549
C     15.8345      0.9810      6.3206
H     18.2543      2.4064      9.7647
H      8.1779     12.1148      9.8251
H     12.4197     10.9798      5.9383
H     -9.2554      1.3086      4.4139
H     12.4782      7.2431      8.7598
C     15.0083      4.5812      7.2605
H    -12.7738      4.3520      1.3005
C     17.1874      5.2537      5.3009
C     17.0018      2.4723      9.4708
H     -5.8232     12.6888     -0.0206
H      0.4812      6.3894     -0.1612
C      8.3193      8.2654     10.8604
H     15.0628      3.3633     10.9315
H     20.4805      5.4659      7.8832
H     -0.9803      6.3208     -0.0813
C     17.0561      2.9090      4.8011
C     17.3737      9.5852      5.5075
C      6.3067     12.1600      8.5314
C      7.5239      9.6383      6.5809
C     18.5661      4.4289      7.8980
C     18.5857      0.2915      8.0967
H     11.8067      4.4301      7.7924
H     -5.6997     -1.9335     -0.6057
H     -3.3862      5.4104      0.5637
C      1.8625     10.1326      0.7713
H     15.7321      4.0547      9.6477
H     10.0864      9.5109      3.2410
