286

C      6.7563     -4.0111     13.6246
N     11.6727     10.4980      0.7284
C      3.9034      1.4248      7.2159
C      1.8911      2.7831     16.0371
H      1.4392      0.9693      9.8599
C      7.5206      4.9227     15.3038
H     10.0144      6.6448     14.5306
C      7.6238      3.3217     15.7463
C      3.2092      4.0020      5.5105
C      6.3156     -2.8268     11.2192
C      3.3880      7.1729      6.7175
C      6.2385      1.9337      4.2433
C      6.1786      9.5475      8.4928
C      0.9988      8.7972      0.9740
C      9.2920     12.2449     -0.1437
C      8.2474     14.1581      1.1313
N      0.6214      2.7140      6.3206
H      6.0699     -3.3207     10.2905
C     13.9493      6.3753      0.9129
O     11.8698      2.9383      0.8402
C      3.4249      3.9424      7.3020
H     -0.2020      7.3170     -2.3338
H      8.0522      3.0690     14.7144
C      2.9916      6.4038      4.6734
C      3.6356     -2.2606     16.4622
H      9.7171      4.5018      5.0527
C      4.1677     -3.5846     16.0638
H      5.9256      7.8532      9.7187
H      6.2892     -1.7444     10.4056
H      5.5695      3.2172      5.8063
H      4.3863      5.0009      8.4537
H     12.5823      5.0358      6.6603
C      3.4475      2.7038      8.0426
H      9.4607     12.6843     -1.9456
H      7.0061      1.4230      4.9831
C      7.7575     12.5607      8.4409
C      9.2808     11.6127     -1.4772
C      6.4461      5.7810      9.7862
H      1.7790     -0.1310      8.9764
H      2.7507      5.1524      8.8061
C      6.3466      3.0094     16.1861
H      6.0625      3.1269      8.2031
H      4.3220     -1.4289      9.1030
H      3.2853      6.9161      9.0890
C      3.7298     -2.0316     17.7880
C     10.2697      8.3928      5.3522
O      2.1771      8.9197      4.9243
C     11.8837      8.0046      7.2839
C      8.8308      8.2317     12.0856
C      7.5676     -5.1566     12.7504
C      6.5449      6.7167     12.0840
H      5.4701      4.7035     15.4177
H      6.5231      3.3780     12.3806
H      4.9810     -2.9729     14.2295
H      1.4243     -0.3419     18.8923
H      8.1206      7.9286      8.5907
C      8.3388      2.9108      8.7932
H     13.2238      1.4938      2.7762
C      7.0600      5.8586     11.0360
C      8.2599      5.8981     16.0086
H      8.6430      8.2118     15.3050
H      7.3175     14.5101      1.6644
C     12.0893      6.8264      5.2906
H      3.8966      8.7283      8.4824
H      3.8372     -1.2982     15.7483
H      4.0166      6.3489      2.8564
H      3.3906      4.2611     10.8636
H     15.7872      6.0460      1.0943
C      9.2707     11.4781      7.0007
C      6.9579      5.0332      8.6982
O      3.9151      1.8984     12.3005
C      3.2395      7.7023      5.3130
C      9.4594     14.7858      1.4118
C      5.7864      4.1336     12.7419
C      4.6634     -3.8262     14.7822
H      9.2224      7.5754      5.4915
H      8.9676      8.2249      3.6195
H      3.5383      0.6790     10.6493
H      5.5907      0.6739      6.0623
C     -0.5283      3.0079      8.2811
H      8.0277     -3.7880     15.4193
C      0.0524      8.7529     -0.4203
C      1.8134      2.2168      8.2787
H     -1.5622      5.9603     -1.4216
H     10.1716      9.9733     -2.2908
C     12.5990      6.4198      1.6624
H      5.7510      7.4001     11.5971
H     10.4745      3.2030      6.2882
H      8.5783      7.7709      6.8607
C      9.9484      7.4707     12.7313
O      2.8975     10.0939      0.2012
C      7.0329      8.8330      7.5530
C      4.3763      8.3630      7.3441
C      3.5122      1.1271      9.5229
C      3.3298      0.3895     17.9459
H      7.3507     -2.1502     14.8288
H      7.3339      1.3065      7.2301
H     11.0152      5.2978      6.3878
H      4.9577      6.5745      8.5566
C      4.1578      3.3815     16.3516
C     10.6586      8.4883      0.5712
C     -1.5409      6.8536     -0.8350
C      5.1988      2.5022      5.2652
H      1.8364     -2.3674      8.9034
H      5.1829     -0.5897     18.5730
C      2.0728     -1.1912      8.7985
C      4.2303     11.0106      7.3113
C     10.9808      5.2942      3.8286
C      3.8768      9.6316      6.7658
C      2.6853      3.8953     15.9434
C      5.4060      6.7978      9.5649
H      1.2957     -1.1431      8.0827
H      2.3726      7.6108      0.1937
H      0.5426     11.4584      1.8221
H      9.5460      6.2681     17.6412
H     10.1383     12.9778      0.3151
H     16.1608      3.8336      0.3872
O      5.6624      6.6042      6.5602
C      0.8212      8.1090      4.6611
H      4.0849     -1.0567     19.5023
C     10.0219      8.3502      3.7606
C     11.0001      7.4979      2.8688
H      8.6762     10.2766      8.2899
H      8.3476      3.4660     16.3572
C     10.8711      8.4087      8.2212
H      9.3027     15.9700      1.4604
H      1.5037      3.0006      4.5665
H     11.6127     10.4920     -2.1372
H      4.7257      3.2314     11.7728
C      2.6040      1.0564     15.5378
C      0.0419      8.5736      2.2057
O      4.8959      4.3195     11.6304
O      6.7719      3.2305     10.5584
C     12.9330      3.1009      1.3384
C     12.8485      4.1291      4.3358
C      6.7181     10.8224      6.4497
H      2.8786      9.3308      6.4242
H     -0.9021      9.2363      3.9983
H     -1.3557      8.7284     -2.1704
O      0.1342     10.2307      5.4862
C      5.7094     10.7806      7.6474
C     13.8581      7.0014      6.9925
C      1.9760      7.7128      1.2627
C      0.8138      7.5902      3.3111
H      8.3729     13.1897      7.8747
C      2.2196     -0.1126     17.1054
C      0.6091      2.7735      7.6864
C     10.4343     10.5706      6.7949
C     10.4576      3.6357      5.2567
C      4.1786     -0.7562     18.3436
C      2.7358      3.3774     10.3606
C     13.6227      2.4942      2.4863
C     11.9611      7.6984      1.6587
C      3.5557     -1.1061      8.3609
N      1.1679     -0.6453     17.8602
C      2.3207      0.9033     13.9585
O      4.6986      5.8021     13.3723
C      9.3370      6.5658     13.7364
H      5.7331      9.6273      5.2717
C     10.5074      4.7118      2.6842
C     10.2654      7.9052      9.3842
H      9.3793      3.8280      8.9226
H      1.9873      0.3366      7.0724
H      7.3732      9.1082      5.5326
C     10.9574      9.8014     -0.1742
H      4.6577      6.9677     10.4127
H      1.6321      6.1625      9.3620
H     -0.0585      9.6941      2.5410
H      1.2141      8.6878     -2.1754
H      2.0709     -0.0957     13.7078
H     -0.2314      3.4238      9.2335
C      2.2371      7.3858      2.5455
H      1.1331      1.2895     13.3779
C      1.0568      8.2884     -1.2561
C      6.3057     -2.8866     12.5270
H      7.3488      4.9923     11.7221
C     10.5820     10.5211     -1.3602
H      0.2613     -0.0289     17.5958
C      4.4083      8.4398      4.4410
C      8.0774      7.2784     15.4687
C      7.4754     -3.1279     14.5476
C      5.9871     -4.7676     14.5997
C      4.3974      5.8116      6.5332
C     14.9676      5.1205      2.8227
C      6.0651      5.4740     13.1427
C      5.4675      7.5666      4.1237
C      7.9409      6.9160     14.0477
H      2.1312      8.0758     -0.8490
C      4.7047      4.7832      7.5222
O      1.0356     11.3782      0.9758
C     15.0383      5.4008      1.2110
H     10.4888      9.7793      7.6623
C      6.2172      7.2049      5.2880
H      0.1689      1.7478      5.9687
H     10.4432     14.7847      1.0559
H     10.6280      5.5747      2.0469
C      7.2317      5.6600     14.1012
H     12.9316      3.2713      3.3787
O      7.4499      7.2045      5.2791
H      7.1284      8.7739     10.6916
H      9.8485      8.7065      1.2765
H     14.8199      3.1590      0.7080
H      4.7240      5.0619      4.1595
C     -0.9186      7.8054     -1.5996
H      6.6146      4.4156      6.7949
C      2.9556      6.3771      3.2364
C     11.5469      4.5851      4.9018
C     13.7813      6.9892      5.5663
H      5.3041      9.2581      9.1164
H      2.2682      1.9817      6.0863
C      1.5246      5.9431      4.9423
H      0.8217     -0.3025     15.7002
H     10.7130      7.1875     10.3008
C      7.8645      7.6566      7.6114
C      4.0747      0.2835      8.3117
C      6.5968      7.8413      2.9807
C      9.9085      9.8722      5.4444
C      0.0595      6.3326      3.2347
C     11.6059      6.6053      3.8150
H      9.2692     11.9792      6.0495
H     14.7464      4.3552     -0.6394
H      3.8933     -4.3342     14.1131
H      5.4835      3.3694     13.5347
H     10.5063      2.8318      4.6046
C      2.1237      1.0358      9.0115
H     11.1019     11.4095      6.6226
C     13.8184      5.2390      3.7752
C      5.3360      3.6774     15.5752
H      1.1782      4.4177      7.9029
H      5.3176      7.9461      7.7094
C      7.3981      3.6582      9.6417
H     11.7018     11.5054      0.4458
H      7.0581     11.9301      6.5851
C      2.5055      6.2623      8.8304
C     11.8483      5.5684      5.9555
C      1.5548      0.2885     16.0521
C      1.8477      4.7309      5.8177
C      2.2792      6.5128      7.3953
C     15.1810      4.1023      0.3886
H     12.0347      5.4640      1.6632
H      3.4544      0.7012     14.8353
H      9.2141      9.3174      8.9206
H      3.2535      1.2734     12.9934
H      7.3885      6.6700      7.2419
H     10.5141     10.2478      4.7743
C      8.1885     12.9113      0.3146
H      5.7212      0.8849      4.0224
C     -0.3455      9.0424      4.9985
C      9.2995      8.9581      9.8356
H      8.1061     -2.9564     13.5774
C      8.4714     11.3003      8.0223
H      9.6417      4.1357      2.5991
H      8.7680     10.1019      5.4966
H      4.6932      1.1741     11.8060
C     12.9879      7.3253      7.8370
C      0.8368      3.8007      5.4367
O      8.9766      5.7402     17.0695
C     -1.2563      8.1273      5.8562
C      6.2600      1.3297      7.4792
C      5.1709      1.6435      6.4187
C      2.7641      0.9154      6.3273
H      8.1119     12.6252      9.4210
H     -0.5519     10.8880      5.5059
H      4.2198      1.0171     17.2855
H     13.1448      7.5036      8.7879
C      2.1820      4.8870      7.2670
H     13.4123      3.7651      0.8877
C      3.8981      5.3211      5.0768
C      3.9595      2.5152      9.4527
H      7.0709     12.5653      0.4091
H     13.7407      6.2129     -0.1549
C      8.3242      8.5182     10.8362
H      2.5590      2.6118     11.1611
H      7.5365      5.7256      7.9688
H     -1.7466      6.5640      0.1097
C      3.9631      2.9370      4.7020
C      4.7115      9.6419      5.3550
C      6.2288     12.0250      8.6116
C      7.2255      9.5607      6.4066
C      6.1077      4.1718      7.7689
C      5.5154      0.3028      8.2097
H     -1.1450      3.8646      7.7461
H      6.4895     -1.8725     12.9472
H      9.2148      5.4534     13.3774
C      1.8395     10.1012      0.6934
H      1.8513      3.6103      9.6521
