285

C     20.0457     -4.0411     13.7668
N     -2.1374     10.3473      1.4196
C      3.7391      1.4688      6.9168
C      1.9401      2.3921      2.4998
H      1.2629      0.4605      9.2176
C      7.7724      4.9421      2.9265
H      9.7914     -6.0667      2.1234
C      7.5507      3.6736      3.2604
C      3.4556      4.3475      5.6878
C     19.4485     -3.0945     11.6744
C     16.3581     -5.7763     19.4737
C      5.8144      1.9338      3.9735
C      6.1534     -3.4097      8.8481
C     13.7142     -4.1562     13.2472
C     -3.3996     12.1263     -0.6162
C     -4.8156     13.9487      0.0344
N      0.6845      2.7537      5.9159
H     19.0605     -4.0388     11.4826
C      0.8413      6.0634      0.6055
O     -0.4208      2.3454      0.3170
C      3.4972      4.2135      7.2989
H     12.4901     -5.1440      9.8108
H     -5.3327     13.8389      1.0670
C     15.8080     -6.5560     17.2676
C     16.7468     -2.1665     16.3875
H     10.9573    -10.4413      5.7505
C     17.1334     -3.4269     16.0894
H      4.3565      6.7217      9.2578
H     19.9939     -2.0002     11.1020
H      4.2467      5.3173      8.6931
H     12.5276     -8.0670      6.5836
H      5.5947      1.2919      9.4990
C      3.3005      2.7980      7.7335
H     -2.7171     11.4952     -2.6973
H      6.5021      1.1827      3.9303
C      7.7948     -0.4450      8.7663
C     -3.1777     10.8779     -1.6545
C      6.2971      5.9019     10.0304
H      1.7377     -0.3304      8.2987
H      1.7452      5.3699      9.2729
C      6.2245      3.1224      3.3064
H      4.9448      3.6233      8.5728
H      3.8015     -1.6609      9.5826
H      2.9750      6.8843      9.1872
C     17.4851     -1.9684     17.5682
C     10.2723     -4.3102      4.9574
O      2.1766      8.7065      4.7360
C     11.2844     -5.0778      6.9596
C      8.6764     -5.0796     12.0618
C     20.4637     -5.3533     13.0696
C      6.5094      6.6956     12.5465
H     18.1513     -2.6724     13.9658
H      0.8423     -1.8371      4.9657
H      6.9201     -5.3810      9.5372
C      7.9239      2.7265      8.9787
H      0.3644      1.4060      1.6157
C      6.8893      6.0223     11.3049
C      8.0232      5.9595      3.8650
H      8.3028      7.1254      2.5214
C     11.9059     -6.3013      5.0393
H     15.9763     -4.3668     21.1421
H     16.5122     -6.6130     14.9686
H      3.1802      4.8404      9.9125
H      2.9229      5.7618      1.0037
C      9.7756     -1.3031      7.0645
C      6.6793      4.9313      8.9945
C     16.1814     -5.2569     17.8607
C     -3.7167     14.6011      0.1579
C      5.5480      4.4180     13.2682
C     17.8865     -3.6160     14.7425
H      9.3265     -4.9403      5.1897
H      8.7491      7.6404      3.7087
H      2.4046      1.1287     10.5100
H      6.1384     -3.4287     10.1281
H     18.3982     -0.2400     18.4155
C     -0.4308      3.2118      7.9903
H     21.4109     -3.1239     15.4010
C     13.4193     -4.3846     11.7374
C      1.8588      2.3165      8.0659
H     10.7321     -6.0061     10.5543
H     -1.8964      9.2647     -1.9107
C     -0.4082      6.1265      1.3881
H      5.6521      7.2041     12.3360
H     10.8166    -10.3871      3.9970
H      7.9886     -6.0627      8.3586
C     10.2077     -5.6340     12.4041
O     15.6459     -2.7734     14.0155
C      7.0856     -4.2065      8.0464
C     16.8766     -4.4769     20.4087
C      3.1354      1.3897      9.7474
C      3.0744      0.4919      4.7807
H     21.6927     -3.1010     13.4055
H      6.3659      0.1439      6.7262
H     10.5575     -7.6961      6.1617
H      4.4747      7.4670     10.8799
C      3.8663      4.0977      3.4927
C     -2.1010      8.1251      0.4221
C     11.4064     -6.1785     11.3504
H      8.7118      2.2902      9.3441
C      5.2902      2.5019      5.3478
H      1.3053     -1.7785      8.3691
H     18.0315     -0.1986     16.7227
C      2.1037     -1.2727      7.9733
C      4.5461     -1.9179      7.5948
C     11.0323     -8.0156      3.6545
C     16.9822     -3.2097     19.7860
C      2.6797      3.5770      2.8567
C      4.9881      6.7523      9.9243
H      2.1495     -1.1962      6.8697
H     15.3099     -5.1070     12.8541
H     13.9311     -1.2774     13.6876
H      7.8985      6.8176      6.4604
H     -2.8450     13.1644     -0.7045
H      0.4263      4.1925      0.2988
O      5.6241      6.7545      6.5695
C      0.7533      8.3929      4.3618
H      4.9312     -1.2845      6.9205
C     10.4126     -4.3222      3.5170
C     10.6656     -5.6799      2.7775
H      8.4154     -2.3239      8.7168
H      8.2650      2.7094      3.1222
C     10.0302     -4.9115      7.5359
H     -3.7356     15.4778      1.0161
H     -1.1317     10.6389     -1.0412
H      4.3701      4.5103     11.5633
C      2.8073      1.1230      2.2828
C     -0.2603      8.3909      1.8948
O      4.7369      4.9445     12.4659
O      7.4564      3.5802     11.1883
C     -0.3306      3.0301      1.5580
C      0.0824      3.9928      4.2404
C      7.0358     -2.0379      7.1105
H     -4.1812     10.3550     -1.7884
H     15.8995     -3.0783     19.7737
H     11.5538     -4.5547     10.7115
O      0.8897      9.8307      6.0709
C      5.9530     -2.0835      8.2720
C     13.6002     -5.9151      6.7768
C     14.4090     -5.3608     13.5938
H     15.3674     -4.1474     15.5315
C      0.6761      7.8148      2.9416
H      7.8504      0.1463      7.8411
C      2.1225     -0.3281      4.1553
C      0.7355      2.9134      7.3771
C     10.5765     -2.0225      6.2583
C     10.7702     -9.8305      4.8491
C     18.1719     -0.7917     17.5273
C      3.5944      3.8735     10.1710
C      0.7320      2.2636      2.2228
C     -1.2231      7.4296      1.6160
C      3.5662     -1.1007      8.4803
N      1.2271     -0.9075      5.0108
C      2.2492      0.7353      0.8736
C      9.6519      6.3728     13.3407
H     18.7853     -3.5898     18.7411
C     10.4892     -8.8419      2.5678
C      9.9168     -5.2123      9.0504
H      8.0713      3.1834      8.0793
H      2.0623      0.3662      6.5532
H      7.5196     -3.2980      5.7332
C     -2.0090      9.4537      0.4997
H      5.4196      7.6632      9.8955
H      1.0551      7.3759      8.9351
H     -0.3728      9.4126      2.2486
H     15.4445     -4.5112     10.3175
H      2.7745     -0.1566      0.3262
H     -0.6024      2.8874     -0.5547
H     -0.8779      3.2084      9.0786
C     15.0234     -5.2173     15.0691
H      1.1664      0.6474      1.0582
C     14.6212     -4.1943     11.2125
C     19.6424     -2.9559     12.9779
H      7.9467      5.8874     10.9849
C     -2.0145     10.0783     -1.1043
H      0.3302      0.0443      5.2387
C      4.2996      8.5561      4.3348
C      7.8150      7.2989      3.5350
C     21.3000     -3.5279     14.3812
C     19.1623     -4.3033     15.0623
C      4.4240      6.0438      6.5596
C      2.1355      4.9880      2.4564
C      6.5180      5.6254     13.8260
C      5.5646      7.7292      4.1914
C      8.4472      6.7515     13.9650
H     15.0593     -3.2042     11.7413
C      4.5643      5.0867      7.7329
O     13.6193     -2.1376     13.6642
C      1.8914      5.1566      1.0273
H      9.4467     -5.8150      7.0748
C      6.2307      7.4249      5.5641
H      0.1003      1.9173      5.6794
H     -2.7137     14.8160     -0.3098
H      9.9100     -8.3365      1.8963
C      7.6050      5.7757     14.5837
H      0.0296      2.9379      3.5466
O      7.4879      7.3513      5.7660
H      7.2842     -3.9355     11.0753
H     21.9317     -4.3378     14.3046
H      1.6384      3.8668     -0.9587
H      4.6073      5.6815      4.1798
C     12.3249     -5.1143     11.0491
H      6.0145      3.3493      7.3198
C     15.8310     -6.6433     15.7467
C     11.7542     -8.7156      4.7489
C     13.3943     -6.1425      5.1827
H      5.2308     -3.9532      8.8081
H      2.9788      2.4010      4.6060
C      1.3511      5.7788      4.6906
H      3.0597     -0.7414      1.9585
H      9.8413     -6.2861      9.3948
C      7.1196     -5.6102      8.5098
C      4.0072      0.3105      8.6287
C      6.4706      7.9779      3.2426
C      9.7902     -3.0597      5.6572
C     -0.0865      6.0834      2.9847
C     11.3751     -6.6652      3.7388
H     10.7099     -0.6345      7.6083
H      1.6337      2.8457      0.6371
H     17.1163     -4.0209     14.2349
H      9.8486     -9.3503      5.1240
C      1.8578      1.2307      8.7954
H     11.1528     -1.2725      5.5723
C      0.7928      5.1660      3.4838
C      5.2844      4.3938      2.9365
H      1.7991      4.5006      7.9465
H     17.9246     -4.4932     20.4627
C      7.3730      3.6832      9.9664
H     -1.7998     11.1058      0.6975
H      6.7187     -1.5797      6.2382
C      2.0764      6.6222      8.7806
C     11.6953     -7.6818      5.8570
C      2.0537     -0.1310      2.6851
C      1.8824      4.8151      5.6284
C      2.0592      6.6164      7.2799
C      1.4577      4.0434      0.0375
H     -1.0529      5.3935      0.9244
H      3.8618      1.2285      2.5773
H      9.3286     -3.2722      9.6997
H      2.2142      1.4641     -0.0906
H      6.2085     -5.9483      8.2179
H      7.0000      2.2395      8.8068
H      9.0176     -2.7178      4.9376
C     -4.6514     12.5742     -0.5495
H      4.9776      1.7264      3.3214
C     -0.0571      9.3236      5.1087
C      9.2733     -4.3255      9.8577
H      9.3672     -3.8059      3.5884
C      8.3858     -1.7011      7.9250
H      9.8679     -9.4570      3.3390
H      9.0425     -3.3126      6.7429
C     12.8334     -5.0616      7.5516
C      1.1429      3.7630      5.1337
O      8.9651      5.6670      4.7750
C     11.4025     -5.1215      5.6323
C      6.1120      1.0424      7.2609
C      5.0465      1.7774      6.5553
C      2.7800      0.9684      5.9340
H      6.9536      1.5770      7.4532
H      4.8422      2.2993      9.5958
H      8.0041     -0.5990      9.9734
H      0.4309     10.3329      6.6767
H      3.8760      0.7965      3.8524
H     12.9391     -4.8952      8.4302
C      2.2247      5.1337      7.2213
C      4.0645      5.6611      5.1949
C      3.8831      2.5698      9.2501
H     -5.8180     12.2670     -0.1585
H      0.6414      5.9727     -0.6834
C      8.2466     -4.6124     10.8851
H      4.7982      4.0826     10.6341
H      7.4200      5.2999      8.1904
H     11.7932     -7.2088     11.1660
C      3.8780      3.2681      4.7527
C     17.5687     -3.3204     18.3112
C      6.2685     -0.7948      8.9305
C      7.1822     -3.4833      6.8864
C      5.6769      4.1654      8.0653
C      5.6590      0.5727      8.6287
H     -1.0377      2.8877      7.1472
H     19.9513     -1.8138     13.0126
H      6.1676     -0.9013      9.8705
H     10.0748      5.9337     14.1702
C     14.5829     -3.0453     13.5311
H      2.7491      3.4425     10.7665
H     10.7093     -3.2749      3.2265
