291

C     20.0585      8.7953     13.7848
N     -2.3875     10.8052      1.1269
C      3.7329      1.4678      7.1691
C      2.1792      2.4475      2.5822
H    -11.7904     14.4787     10.1608
C      7.5427      5.0482      2.3659
H     -2.9712      7.0526      2.8761
C      7.2767      3.8065      3.0780
C      3.6525      4.2591      5.4524
C     18.8360     10.7832     11.7702
C     16.1021      7.2486     19.5497
C      6.0731      2.0306      3.9745
C     -7.0565      9.4727      8.9280
C     13.6652      8.8415     13.7408
C     -3.3656     11.7868     -0.4942
C     -4.3987     13.5243      0.9125
N      0.4326      2.5062      5.9502
C      0.7223      6.0369      0.8629
O     -1.3897      2.0443      1.3373
C      3.2767      4.2555      6.9853
H     13.5327      6.8395     10.9934
H     -5.2146     13.7865      1.4282
C     15.6878      6.5553     17.4849
C     17.3773     10.6356     15.9111
H     -1.7481      2.8732      6.1690
H      4.9416      5.2502      1.5467
C     16.8555      9.2248     16.0053
H      4.7566      7.1410      8.8024
H     19.1746     11.8301     11.9276
H     -9.9988     18.0542      9.7232
H     -0.0040      5.1069      6.3149
H     -6.9831     13.7436      9.6081
C      3.1419      2.8281      7.7900
H     -3.3132     10.7850     -2.4089
H      6.9125      1.6046      4.3999
O     14.4776     10.7286     15.1658
C     -5.2063     12.2224      8.8874
C     -3.2914     10.6524     -1.3299
C      6.1246      6.0289      9.9999
H    -10.8956     12.9039      8.4611
H      3.8072      5.6086      8.4490
C      6.1635      3.1154      3.1529
H      6.0000      3.9141      7.4833
H     18.2856     10.4534     10.9956
H     -8.5261     12.1395      9.4520
H      2.2479      7.5037      9.6512
C     17.3365     11.0223     17.3822
C     -2.7601      8.8248      4.9883
O      2.1331      8.8557      4.8955
C     -1.5478      8.2542      7.0576
C      8.9072      7.9907     12.0803
C     20.7565      7.4760     13.0128
C      6.6016      6.6830     -0.5818
H      4.5393      3.4570      1.5589
H     17.4840      9.2952     14.0914
H      1.3683     -2.1445      4.1369
H     -6.4507      6.5784      8.8355
C      7.7835      2.4563      9.1757
H      0.9554      1.0607      2.2671
C      7.1868      6.4184     11.1060
C      8.4416      6.0213      2.9753
H      8.5989      7.8414      1.8786
C     -1.0264      6.9249      5.1672
H     15.8657      8.7854     20.8667
H     18.3009     10.4157     15.2752
H     16.8038      6.4556     15.5157
H      2.9121      5.7390      1.2247
C     -3.3145     11.1241      7.7941
C      6.0545      4.8203      9.4420
C     15.9844      7.8304     18.1062
C     -3.4020     14.4059      0.7295
C      5.3207      4.3138     -0.4467
C     17.3098      8.4957     14.7745
H     -3.5403      8.1004      5.2148
H      8.4183      8.0385      3.9155
H     -8.9274     14.2839     10.5418
H     -6.4880      9.5696      9.7414
H     18.8821     12.0825     18.1271
C     -0.4187      3.5942      7.9736
H     21.4211     10.8663     13.7441
C     13.5694      8.6056     12.2070
C      1.7714      2.4824      8.3577
H     11.0633      7.3181     10.5872
H     -2.6494      8.4289     -1.4078
C     -0.7784      6.3027      1.5386
H      5.6167      7.2697     -0.8760
H     -2.5872      2.4271      4.9197
H      7.6643      7.2176      6.0943
C     10.1630      7.1791     12.6185
O     15.7568      9.7419     13.5567
C     -6.3112      8.7014      7.8057
C     17.0163      8.4989     20.2581
C     -9.3421     14.5409      9.6211
C      2.9764      0.6689      5.0366
H     22.0038      9.2413     14.3207
H     -1.6300     11.5398      1.4032
H     -5.8453     13.7971      6.9767
H     -2.2084      5.3554      6.5309
H      3.9096      6.3592     10.0999
C      3.9289      3.3362      3.4517
C     -2.5854      8.1922      0.8240
C     11.4381      6.9541     11.6080
H      8.9895      2.4692      9.4196
C      5.1152      2.3996      5.2960
H    -10.6127     11.3641      9.8033
H     18.2120     13.0202     16.8533
C    -10.5079     11.7606      8.6936
C     -8.1346     11.0912      7.4678
C     -1.7324      5.2148      3.5438
C     17.0976      9.8738     19.7224
C      2.5956      3.6971      3.0047
C      4.7893      6.9164      9.8724
H    -11.0451     10.9681      7.8343
H     15.3924      7.6672     13.2852
H      9.0450      6.7335      4.2675
H     -2.5964     12.5221     -0.6990
H      2.1995      4.1596     -0.6929
O      5.6032      6.9296      6.1849
C      0.7531      8.1673      4.3808
H     -7.5611     11.9906      6.7226
C     -2.5145      9.1365      3.4893
C     -2.1256      7.6316      3.0429
H     -4.8387     10.1903      9.2813
H      8.1230      3.5174      3.8498
C     -2.7108      8.0745      7.6375
H     -3.3337     15.4808      1.1979
H      1.6898      3.1809      4.5287
H      4.0277      5.5317     -0.5872
C      2.9882      1.2670      2.7076
C     -0.3186      8.5363      1.9861
O      4.0752      4.6759     -0.4469
O      7.9675      4.0986     10.7022
C     -0.2964      2.6361      1.4777
C      0.0685      4.1053      4.1419
C     -5.6471     10.6314      7.3092
H     -4.3798     10.1761     -1.3180
H     16.2818     10.0900     18.9718
H     -0.5806      9.9754      4.4449
H     12.6610      7.9439     10.0814
O      0.3102      9.8915      5.8821
C     -6.9136     10.8040      8.1777
C      0.7165      7.3637      6.7659
C     14.4315      7.3156     13.9798
H     15.3910      8.4240     15.7749
C      0.4605      7.6192      2.8758
H     -5.4640     12.8875      7.8660
C      2.3443     -0.3479      4.1228
C      0.6097      2.8987      7.4124
C     -2.3123     11.0081      6.8480
C     -2.1501      3.3546      5.3617
C     17.9156     12.3241     17.6999
C     -9.6411     16.9536      9.9886
C      0.8992      2.1361      1.9281
C     -1.4341      7.6908      1.6310
C     -9.0669     12.2137      8.3500
N      1.5430     -1.4021      4.7587
C      3.6351      1.2655      1.2642
O      5.1946      6.0153      1.0756
C      9.7736      5.8507      0.4274
H     -6.5689      9.1473      5.7734
C     -2.4374      4.5565      2.5150
C     -3.1621      7.4098      8.9497
H      7.6267      2.0005      8.2011
H      1.9655     -0.0894      7.3130
H     -4.9226      9.2810      5.9081
C     -2.2642      9.5311      0.4352
H      4.9564      7.8286     10.3292
H      1.2489      6.0306      9.1995
H     -0.4328      9.4715      2.7073
H     14.4218      8.9481     10.4729
H     13.3910     10.9015     15.0993
H      3.7989      2.1598      1.0222
H     -1.2581      2.0960      0.3127
H     -0.5105      4.1128      8.9212
C     14.7773      7.4757     15.2849
H      4.1969      0.4525      0.8041
C     14.7705      8.9763     11.5373
C     19.3624      9.9176     12.6963
H      8.1032      5.9209     10.7181
C     -2.2430      9.5339     -0.9855
H      1.8829     -1.7230      5.8305
C      4.5711      8.7461      4.4218
C      8.1404      7.5118      2.7126
C     21.1048      9.8819     14.2466
C     18.9179      8.2564     14.6213
C      4.1898      6.2086      6.5526
C      2.0762      5.0069      2.7121
C      6.1598      5.5117      0.1914
C      5.8187      7.9877      4.0035
C      8.4066      6.1114      0.4905
H     15.2349      9.9235     12.0425
C      4.3207      5.2181      7.7250
C      1.9949      5.2379      1.1354
H     -3.4738      8.3915      6.7691
C      6.0726      7.1981      5.0550
H     -0.5989      2.3562      5.6782
H     -2.9711     14.8168     -0.1922
C      7.3312      5.3643      1.0661
H     -0.2635      3.5078      3.3810
O      7.6053      7.1393      5.2294
H      7.3253      8.7098     11.0587
H     20.7563     10.3881     15.1592
H      2.0832      3.2101      1.1387
H      4.8003      5.6791      4.4429
C     12.8691      7.7019     11.1795
C     15.7308      6.2757     16.0272
C     -1.2593      4.5192      4.7934
C      0.4778      7.0142      5.3427
H     -7.9146      9.3196      9.3827
H      2.9090      1.6649      4.9187
C      1.2787      5.8403      4.9105
H      2.4896     -0.7152      2.0413
H     17.0352     11.5287     15.4093
H     -2.9884      6.3198      8.6891
C     -6.0004      7.3773      8.0011
C     -8.7804     13.5445      8.4182
C      6.5600      7.8008      2.7917
C     -2.6828     10.2507      5.4023
C     -0.1640      6.2696      2.8649
C     -1.3769      6.4891      3.6737
H     -2.9971     12.2260      8.4610
H      0.9107      3.6075      0.0655
H     16.3417      7.9283     14.5000
H      5.5094      3.3522     -0.0824
H     -3.1715      4.0899      5.7570
C    -11.0276     14.4931      9.3460
H     -1.2757     11.4695      6.8504
C      0.7877      5.2188      3.5564
C      4.8648      3.3425      2.5138
H      1.6940      4.5227      8.1308
H     17.8033      8.1051     20.7897
C      7.2410      3.9255      9.7614
H     -3.0444     10.5491      2.0152
H     -5.8422     11.7200      6.6038
C      1.8024      6.8801      8.7581
C     -1.1447      5.4869      5.9395
C      2.2045      0.0887      2.8567
C      1.2645      4.8490      5.9132
C      1.9686      6.6210      7.4915
C      1.9699      3.9569      0.4235
H     -1.4997      5.9192      0.7975
H      3.7074      1.3827      3.6548
H     -3.4629      9.3282     10.2188
H      2.8355      1.5844      0.8210
H     -5.3127      6.8809      7.5010
H      7.1669      1.8236      9.8501
H     -2.0855     10.7584      4.5971
C     -4.4346     12.4044      0.0910
H      6.0558      1.2777      3.4627
C     -0.2886      9.0938      4.9312
C     -3.7931      8.1827      9.8948
H      5.8608      3.9751     -1.4058
H     -3.5755      9.5199      3.1109
C     -4.7153     10.8353      8.4525
H     -1.9452      3.6350      2.4929
H     -3.8164     10.8652      5.0920
C     -0.2815      7.6940      7.5326
C      0.9555      3.4825      5.1012
O      9.0030      5.7401      4.2977
C     -1.5417      8.2585      5.4542
C     -6.6755     14.1454      7.4381
C      5.1226      1.6381      6.5644
C      2.4729      0.7254      6.3666
H     -6.7647     15.2665      8.1183
H     -8.0654     16.1102      9.0614
H     -4.7368     12.8743      9.5906
H     -0.2057      9.8927      6.7177
H     17.0656     13.1273     18.0755
H      0.0654      7.8078      8.5389
C      1.9018      5.0608      7.2219
H     -0.5711      3.7738      1.5953
C      3.9753      5.6826      5.0670
C     -9.0292     15.9466      9.1366
H     -5.4620     11.9785     -0.0800
H      0.5334      5.8341     -0.1280
C      8.0058      7.8735     10.7778
H    -10.4899     16.1980     10.1906
H     11.6410      5.8070     11.7151
C      3.8630      3.0667      4.8424
C     17.5980      9.9533     18.0220
C     -6.6954     12.0550      8.9968
C     -5.7014      9.3577      6.6261
C      5.6077      4.5752      8.0986
C     -7.2489     13.4505      8.6307
H     -1.2882      3.3704      7.4019
H      9.2692      8.9034     12.7073
H     -7.0306     11.6453      9.9069
H     -2.5050      4.8876      1.2614
C     14.6873      9.8835     14.1340
H     -8.7688     17.5247     10.5409
H     -1.9507      9.9832      3.2566
