285

C     19.7432      8.7823     13.4675
N     -2.2166     10.5659      1.3706
C      3.5430      1.4274      7.0525
C      2.0218      2.4338      2.1307
H    -11.0151     13.3384      9.3447
C     -5.2448     17.7759      2.4722
H     -3.1271      7.5606      2.3382
C     -5.4100     16.5065      2.8664
C      3.3711      3.9133      5.4369
C     19.5273      9.9523     11.0726
C     16.2555      7.5115     19.5403
C     -6.6607     14.9949      3.9450
C     -6.7008     21.2799      8.8518
C     13.8343      8.6994     13.5720
C     -3.0303     12.4428     -0.7475
C     -4.0858     13.4527      1.1197
N      0.2601      2.4783      5.7468
C      0.5252      6.4514      0.5974
O     -1.6022      2.8277      1.5557
C      3.3024      4.2203      6.8536
H     13.0740      6.3550     11.4753
H     -4.6099     13.2756      1.9589
C     15.8746      6.6465     17.3670
C     17.1568     10.4799     15.9650
H     -1.4195     15.7183      5.8244
C     17.1039      9.1400     15.8113
H     -7.9536     20.3355     10.3030
H     19.9707     11.0367     11.0469
H    -10.8970     16.2780     10.3600
H     -1.7539     18.6409      6.8868
H     -7.1824     14.1777      9.3005
C      3.0637      2.8579      7.6906
H     -2.1658     11.7183     -2.5366
H     -5.6728     14.9955      4.5909
O     14.6411      9.9256     15.5740
C     -5.2285     12.3479      9.2925
H     19.3023     10.6650     13.1758
C     -2.8738     11.3932     -1.7105
C      6.1502      5.7537      9.7424
H      2.7754     -0.3327      6.5328
H      4.2794      5.6775      8.1484
C     -6.5852     15.9931      2.8715
H      6.0163      3.8926      7.0992
H     18.7757     10.0233     10.2792
H     -8.5426     11.2967      9.2089
H      2.4979     20.7795      9.2150
C     17.3057     10.7910     17.3964
C     -2.6696      9.1608      5.0507
O      2.1632     21.8268      4.6902
C     -1.3948     21.2684      7.1991
C      8.6986      7.5785     11.8629
C     20.3903      7.4345     12.7393
C     -6.5956     19.4168     -0.8658
H     17.7264      9.6068     14.0565
H      1.4774     -1.7524      3.7911
H     -5.5471     19.2802      7.9326
C      7.6498      2.5956      8.5661
H      0.4449      1.1908      2.2492
C      7.2210      6.0170     10.7568
C     -4.4914     19.0921      3.2707
H     -5.1404     20.4074      1.8542
C     -1.2373     19.9952      5.1208
H     16.6824      8.6429     21.3665
H     17.3080     11.3039     15.3513
H      2.3173      5.3888      0.8397
C     -3.1508     11.7958      8.1743
C      6.2627      4.5732      9.0318
C     15.6456      7.7383     18.1830
C     -3.6357     14.6423      1.0336
C     -7.8124     17.4040     -0.7140
C     17.5980      8.7407     14.4348
H     -3.5461      8.5216      5.2723
H     -4.7354     21.2917      3.4893
H     -9.5321     14.0097     10.5305
H     -6.9662      9.7449      8.3493
H     18.7202     12.3136     17.5083
C     -0.3882      3.3083      8.0644
H     20.5796      9.5908     15.1163
C     13.3123      8.3855     12.1752
C      1.6866      2.2700      8.1405
H     10.8382      6.3647     10.8594
H     -1.6826      9.8080     -1.9864
C     -0.6794      6.4161      1.5726
H     -7.4256     20.1703     -1.1830
H     -2.8785     15.7297      4.6533
H     18.0261      9.3356     12.4364
H     -5.2234     19.4390      5.9651
C      9.9208      7.2479     12.8209
O     15.8462     10.2391     13.8755
C     -5.5097     21.0499      7.9784
C     17.0780      8.6567     20.3643
C     -9.6314     14.2975      9.4643
C      2.1131      1.1476      4.7832
H     -5.2544     11.8793     -0.2781
H     -1.8451     11.4845      1.5145
H     -6.6427     12.8555      6.7526
H      2.5263     18.7084      9.1943
C      3.9967      3.6125      3.2411
C     -2.2057      8.4255      0.4141
C     10.9952      6.7112     11.9080
H      6.9393      2.0181      8.9999
C     -7.6151     15.2531      5.0722
H    -10.4257     11.4316     10.0005
H     17.2014     12.6662     16.8877
C    -10.6207     11.8924      8.8218
C     -8.1192     10.9841      7.3130
C     -2.3373     18.3232      3.9384
C     16.7974      9.8533     19.6062
C      2.5623      3.9020      2.5682
C     -7.4589     19.9947      9.4092
H    -11.2612     12.2630      7.9338
H     15.5319      7.1469     13.6774
H     -2.0789     12.6759     -0.3039
H      0.1807      3.8725     -0.2948
O     -7.0057     19.8256      6.3423
C      0.7221     21.2058      4.3134
H     -8.2110     11.8889      6.5536
C     -2.4512      8.9779      3.5520
C     -2.2607      7.7576      2.8298
H     -4.6540     10.5843      9.3652
H     -4.6200     16.3524      3.4734
C     -2.5874     21.3413      7.7685
H     -3.7632     15.4391      2.1484
H      2.4812      4.1534      4.9229
H     -0.9057     10.6514     -1.0953
H     -9.2855     17.7858      0.6075
C      2.9545      1.4131      1.9424
C     -0.0958     21.5606      1.9472
O     -9.0885     17.4441     -0.3466
O      7.4499      3.5159     10.8638
C     -0.3706      2.9174      1.7489
C     -0.0437      3.8596      3.9132
C     -5.6647     23.5921      7.3521
H     -3.4833     10.9814     -2.4591
H     15.9239     10.1935     19.2601
H     -0.7074     23.1729      4.7329
O      0.4596     23.1097      6.1786
C     -6.8510     11.0141      8.1770
C      0.9040     20.0971      6.8767
C     14.5398      7.5015     13.9404
H     15.3566      8.2381     15.6393
C      0.4920     20.5279      3.0491
H     -5.0755     13.3221      8.9714
C      2.2000      0.1435      3.8898
C      0.4741      2.5740      7.4368
C     -2.6880     11.3035      6.9398
C     -2.2973     16.2704      5.5502
C     17.7567     12.2338     17.7076
C     -9.7218     16.3544     10.3971
C      0.7585      2.1090      2.1187
C     -1.4368      7.8574      1.6790
C     -9.2215     11.7898      8.3691
N      1.8688     -1.0919      4.4801
C      3.4178      1.3593      0.4723
C     -3.6642     19.1662      0.8713
H     18.2018      9.3402     18.8992
C     -2.7251     17.4022      2.9331
C     -2.9658     21.2316      9.2577
H      8.5183      1.9169      8.8668
H      1.7346      1.1648      6.8914
H     -4.0882     21.8954      7.0250
C     -2.3447      9.9076      0.0620
H     -8.5099     19.6165      8.9906
H      1.1617     19.8891      9.2929
H     -0.3420     22.5686      2.3100
H     14.3615      8.7585     10.5211
H      2.3344      1.4260     -0.1013
H     -2.1843     17.1973      1.9211
H      0.1668      3.2854      9.1108
C     14.7177      7.4948     15.4452
C     14.1705      9.0746     11.5220
C     19.0525      9.6512     12.4809
H      7.4928      5.0493     10.8990
C     -1.9564     10.4835     -1.1882
H      1.2499     -0.9007      5.3898
C     -8.2191     21.4934      4.1124
C     -5.0826     20.3134      3.0633
C     20.9196      9.5205     14.0884
C     18.8751      8.3417     14.6857
C     -8.6040     19.1058      6.2126
C      1.7180      4.9947      2.6740
C     -6.8760     18.2396      0.1832
C     -6.9908     20.9021      4.2984
C     -5.0476     19.5509      0.9184
H     15.1180      9.6572     11.5996
C      4.3362      5.2023      7.3268
C      1.2144      5.1863      1.0598
H     -3.4428     20.6996      7.1763
C     -6.3828     20.4881      5.4860
H      0.9941      1.2800      4.7651
H     -3.6194     15.2487     -0.0481
H     -3.8420     17.6699      2.4282
C     -5.8502     18.3719      1.1757
H     -0.9818      3.8021      4.0312
O     -4.9610     20.2759      5.6249
H      9.0423      8.7262     11.5929
H     21.5791      8.6127     14.4255
H      0.4823      3.2337      3.2103
H      1.7039      4.6986     -0.6445
H     -8.3244     18.1586      4.1514
C     12.4368      7.3154     11.3618
H      6.3947      5.4403      7.4340
C     15.2850      6.3931     16.0565
C     -2.1671     17.7635      5.2359
C      0.4673     20.0004      5.4665
H     20.4945      9.2331     10.7315
H      2.6487      2.0211      4.2860
C      0.9410     18.7309      5.0052
H      2.5052     -0.7461      2.1506
H     15.5822     10.1186     15.9012
H     -2.2154     21.4856     10.0792
C     -4.5899     19.7670      8.1155
C     -8.7171     13.4691      8.2893
C     -6.5097     20.5888      2.9645
C     -2.8116     10.7024      5.4039
C     -0.1886     19.2998      3.0206
C     -1.5320     19.6847      3.7461
H     -2.4550     12.6071      8.2523
H      2.0217      3.1741      0.0408
H     -7.1853     16.3978     -0.4362
H     -2.8186     16.5418      6.3389
C    -10.9406     14.2988      9.1603
H     -1.7702     11.2869      6.8702
C      0.6123      5.3215      3.5390
C     -7.9250     16.4229      2.1070
H      1.7138     17.7571      8.0200
C      7.3335      3.5793      9.5062
H     -2.9333     10.1377      2.0796
H     -5.7730     24.2544      6.3206
C      2.2435     19.8138      8.7344
C     -1.3598     18.6335      5.8709
C      2.5204      0.1601      2.5667
C      1.2237     17.7039      5.8240
C      2.3209     19.8956      7.2686
C      1.2834      3.9723     -0.0010
H     -1.4660      5.7421      1.6844
H      3.9688      1.4803      2.5314
H     -3.6483     22.3117      9.2318
H      3.9806      0.3231      0.3845
H     -3.6122     19.5895      7.4950
H      7.7436      2.8935      7.6100
H     -1.9578     11.0475      4.9585
C     -4.2307     12.4726     -0.0338
H     -6.6040     13.7294      3.4140
C     -0.0909     22.2285      4.9629
C     -4.0892     20.2686      9.4284
H     -7.6767     17.5897     -1.7848
H     -3.2006      9.5080      2.9313
C     -4.4556     11.3456      8.5682
H     -2.7994     16.3046      3.3128
H     -3.8669     10.8468      5.0763
C      0.0527     20.8229      7.6743
C      0.5016      3.5798      5.2237
O     -3.7303     19.2509      4.1709
C     -1.4376     21.4816      5.7089
C     -6.7728     13.8391      7.0594
C     -7.8543     14.6060      6.2694
C      2.6429      0.7498      6.2072
H     -5.7222     13.7185      6.9648
H     -4.9442     11.9699     10.3373
H      1.1451     22.3886      6.3815
H     17.3958     12.6183     18.6519
H      0.4154     21.0557      8.7467
C      2.0595     18.0739      6.9735
H     -0.0853      4.0382      1.2652
C     -8.8020     18.6821      4.9269
C     -9.2193     15.5966      9.1994
H     21.2083     10.5791     13.5640
H      0.2776      6.1577     -0.3139
C      8.4684      6.7777     10.6056
H     -8.8061     16.0927     11.0283
H     11.4174      5.8255     12.3047
C      4.3051      3.2376      4.5871
C     17.3743      9.5502     18.0679
C     -6.7183     12.1212      8.9784
C     -5.0936     22.1048      7.1413
C      5.6227      4.6660      7.7095
C     -7.2083     13.4904      8.5018
H     -1.4194      3.6955      7.6611
H     -3.5600      9.8544     -0.1155
H     -7.3015     12.3105     10.1202
H     -3.3919     18.5305      1.7061
C     14.8284      9.7295     14.2474
H     -9.9921     17.3682     10.0602
H     -1.9695      9.8483      3.5152
285

C     19.7467      8.6534     13.3024
N     -1.8871     10.6024     14.2163
C      3.8524      1.4411     20.0898
C      2.0334      2.7580     14.9093
H    -11.4271     13.4501      9.5597
C      7.7071      5.0440     15.3311
H     -3.2359      7.4686      2.6329
C      7.5902      3.6309     15.6986
C      3.5076      4.1348     18.3625
C     19.5523      9.8986     11.2552
C     16.2511      7.5050     19.3323
C      6.2600      1.8982     16.9268
C     -6.6244      8.2557      8.7600
C     13.8446      8.6649     13.7260
C     -3.0316     12.1559     12.1909
C     -4.2811     13.5562     13.9480
N    -12.6567     15.4126      6.0367
C      0.4874      6.3248     13.6108
O     -1.6220      2.7257     14.3210
C      3.2289      4.2149     19.7240
H     -0.1084      6.6164     11.2790
H     -4.7810     13.4595     15.0173
C     15.9716      6.7031     17.2365
C     17.1426     10.5321     15.9621
H     10.8593      3.6566     19.4390
C     17.1278      9.1381     15.8025
H     -7.4211      7.8200     10.6006
H     20.4757     10.4490     11.2474
H    -10.5348     15.4388     10.5830
H     11.8067      5.2227     20.0757
H     -6.8827     14.0952      9.2608
C      3.0969      2.7653     20.4863
H     -2.0975     11.7265     10.2719
H      7.1821      2.0827     17.7705
O     14.3912      9.8115     15.6575
C     -5.2917     12.2715      9.1915
H     19.2556     10.5066     13.3335
C     -2.9144     11.2984     11.0281
C     -6.7996      5.8104      9.8175
H      2.7462     -0.3072     19.1104
H     -8.9887      5.6279      8.2048
C      6.3477      2.9965     15.7661
H     -7.5125      3.2889      7.3103
H     18.7096     10.6440     10.4625
H     -8.5755     11.5095      9.5684
H      1.9271      8.0648      9.3301
C     17.4225     10.9530     17.2409
C     -2.6903      9.1249      5.1229
O     14.9683      8.6701     17.6340
C     -1.4579      8.0988      7.3248
C     -4.1626      7.6861     11.7852
C     20.4287      7.4239     12.8083
C     -6.4530      6.5813     12.1634
H     17.4614      9.6401     13.7481
H      1.6060     -2.3081     17.0937
H     -5.1601      5.7789      8.3606
C     -5.4021      2.6408      8.5012
C     -5.6041      5.8965     10.7609
C      8.0879      6.0248     16.4346
H     -4.7682      7.4704      1.8427
C     11.8664      7.0617     18.2350
H     16.5293      8.6447     21.3982
H     17.0978     11.1212     14.9915
H      2.2631      5.4524     13.2927
C     -3.2231     11.3407      7.9624
C     -6.8478      4.5058      8.9992
C     15.6160      7.6836     18.1462
C     -3.6793     14.7256     13.8294
C     -7.6256      4.4633     12.4914
C     17.5841      8.8148     14.4416
H     -3.7152      8.5474      5.2040
H     -5.0779      8.2180      3.5893
H     -9.5246     14.2877     10.4869
H     18.5221     12.5301     16.7381
C    -13.1813     16.4371      8.1340
H     20.0810      9.4771     14.8509
C     13.5641      8.8348     12.1899
C    -11.0874     15.1230      8.0387
H     -2.3078      6.4546     10.9304
H     -1.6199      9.2715     11.5805
C     -0.7808      6.4999     14.2414
H     -7.5708      7.0432     12.4379
H     10.7588      2.7578     17.8384
H     17.9299      9.5745     12.3577
H     -4.7066      6.3289      6.2523
C     -2.8809      7.4694     12.6106
O     15.5852     10.0468     13.6843
C     -5.5338      8.2893      7.8380
C     16.8576      8.5413     20.3021
C     -9.5067     14.3734      9.5081
C      2.0150      0.9820     17.7135
H     -5.1872     11.8910     12.6280
H     -1.1134     11.3543     13.9815
H     -6.7413     13.0095      5.9486
H      3.1423      6.6766      9.1961
C      4.0980      3.7380     16.1505
C     -2.1599      8.4931     13.2947
C     -1.8576      6.6162     11.8923
H     -6.3357      2.3615      8.1934
C      5.1889      2.2245     17.7978
H    -11.0338     12.0218      9.5572
H     17.0611     13.0272     16.9370
C    -10.5290     11.7934      8.6581
C     -8.3232     11.1486      7.3688
C     10.4757      5.4934     16.9082
C     16.8677      9.8863     19.5310
C      2.5288      3.7353     15.8781
C     -7.4036      7.1034      9.7891
H    -11.0445     12.0917      7.7784
H     14.9401      6.9297     12.9271
H     -2.2242     12.6788     12.5300
H      0.5207      2.9808     12.9803
O     -6.9120      7.1097      6.4794
C     13.5424      8.2122     17.4969
H     -7.8613     11.6144      6.5634
C     -2.5318      9.1936      3.6499
C     -2.2255      7.7712      2.8983
H     -4.4990     10.4680      9.1822
H      8.0065      3.1963     16.6877
C     -2.6621      8.2893      8.0036
H     -3.3323     15.3185     14.9368
H      2.3803      3.9677     18.0155
H     -0.9339     10.8167     11.4398
H     -9.1384      5.3098     13.2803
C      3.0976      1.3871     14.9526
C     12.7401      8.6827     14.8062
O     -9.0472      4.4239     12.7296
O     -5.4661      3.2648     10.8099
C     -0.3684      3.2314     14.6314
C    -12.7347     16.9128      3.9795
C     -5.6597     10.7228      7.6407
H     -3.7829     10.4414     10.6974
H     15.9488     10.4396     19.4484
H     -0.2449      9.8560      4.1172
H     -0.9119      8.0792     10.5279
O      0.7562     10.4542      6.0746
C     -6.9462     10.8723      8.4548
C      0.8133      7.4233      6.8124
C     14.4039      7.4798     13.8322
H     15.2355      8.3175     15.1117
C     13.3236      7.7796     15.9781
H     -5.0385     12.9728      8.4649
C      2.0953     -0.2783     16.7445
C    -12.3080     15.5663      7.4888
C     -2.5700     10.9065      6.7485
C     10.4378      3.5097     18.5497
C     17.7461     12.3760     17.3648
C     -9.9431     16.4452     10.0264
C      0.6058      2.2685     14.9781
C     -1.3586      7.9962     14.2656
C     -9.0906     11.6898      8.5027
N      2.0319     -1.3943     17.4380
C      3.4189      1.1868     13.5140
C     -3.5739      6.4041     13.5811
H     18.5634      9.8138     18.6581
C     10.0120      4.3814     15.9342
C     -3.1813      8.1999      9.3178
H     -4.6216      1.8407      8.4986
H      1.6336      0.6928     19.6633
H     -4.4749      9.5419      6.4017
C     -2.2370      9.8751     13.0537
H     -8.4539      7.1440      9.2192
H      1.4424      6.5279      9.4081
H     12.7589      9.8459     15.1559
H     13.8243      9.0584     10.5147
H      2.7215      1.3550     12.6564
H     10.7515      3.7743     15.3971
H    -13.0522     15.9455      9.2425
C     14.6566      7.4183     15.4158
H      4.4167      1.9158     13.3298
C     14.4968      9.3955     11.2507
C     19.0028      9.7387     12.4789
H     -5.6539      5.0447     11.2389
C     -1.8389     10.3341     11.6776
H      1.4356     -1.0350     18.3539
C     -8.4269      8.5518      4.2596
C     -5.3661      7.4354      2.9949
C     20.6986      9.4476     14.1418
C     18.8408      8.2545     14.4858
C     -8.4001      6.4665      6.1601
C      1.9112      5.2394     15.5700
C     -6.7800      5.3366     13.1389
C     -7.1314      7.7883      4.2352
C     -4.8719      6.4226     13.6844
H     15.3116     10.2274     11.1918
C     -8.6891      5.3776      7.3196
C      1.3808      5.1684     13.9462
H     -3.5303      8.3503      7.1614
C     -6.2329      7.7193      5.5577
H      0.9527      1.4120     17.5823
H     -2.7372     14.5616     13.0458
H      9.4325      4.6360     15.1083
C     -5.9070      5.5681     14.1691
H    -13.9130     16.7657      3.6315
O     -4.9240      7.2802      5.5717
H     -4.2783      8.7732     11.1758
H     21.9164      8.8731     14.4535
H      1.1175      4.2890     11.8888
H     -8.3478      5.2100      3.6186
C     -0.7451      7.4601     11.4603
H     -6.5897      5.0529      6.5800
C     15.4124      6.4431     15.9288
C     10.9371      4.8945     18.1368
C     13.5136      7.1322     18.4286
H     19.5930      9.1622     10.7112
H      2.5758      1.9072     17.1320
C    -11.7912     18.6885      4.9910
H      2.5256     -1.0187     15.1228
H     15.4499      9.8161     16.0017
H     -2.2389      8.4704      9.8882
C     -4.5860      6.8845      8.2162
C     -8.7141     13.5221      8.3616
C     -6.7602      7.5010      2.9508
C     -2.9608     10.6060      5.4071
C    -13.2200     19.3443      2.8933
C     11.4134      6.7204     16.7407
H     -2.6514     11.7302      8.6536
H      2.3340      3.2789     12.8719
H     -7.2353      3.4980     12.1490
H      9.5441      3.2407     18.8273
C    -10.8856     14.2261      9.0771
H     -1.3864     11.0629      6.9499
C    -12.2784     18.2336      3.6371
C      5.0615      3.5185     15.2343
H    -11.7991     17.5722      7.7809
H     17.7688      8.1578     20.7893
C     -5.8222      3.6336      9.5922
H     -2.5893     10.0208     14.9652
H     -5.5956     11.4792      6.8348
C      2.2137      7.0297      8.8720
C     11.3521      5.7572     19.1605
C      2.4707     -0.0063     15.3771
C    -11.6917     17.6784      5.9164
C      1.9947      6.7900      7.4301
C      1.2905      3.9405     13.0780
H     -1.4729      5.6252     13.9271
H      4.1191      1.2729     15.4017
H     -3.7574      9.1153      9.3947
H      3.7452      0.2458     13.0709
H     -3.7646      6.4886      7.7362
H     -5.2502      3.3622      7.6924
H     -2.2771     11.2136      4.6388
C     -4.2938     12.5625     12.8902
H      6.1052      1.0469     16.2058
C      0.0243      9.5173      5.2494
C     -4.1118      7.1594      9.4747
H     -7.6927      4.8932     11.4480
H     -3.5028      9.2715      3.5106
C     -4.5448     11.2517      8.4784
H      9.5243      3.7934     16.5746
H     -3.6342     11.1700      4.7590
C     -0.0914      7.7191      7.7680
C    -12.4269     16.5243      5.3468
O      9.2459      6.2350     17.1095
C     -1.3162      8.5320      5.8084
C     -6.8193     13.7304      6.7045
C      5.0587      1.6352     19.0811
C      2.5664      0.6743     19.2318
H     -5.9914     14.5134      7.0888
H     -4.7970     12.7157     10.2629
H      1.4170     10.0192      6.5556
H     17.6138     12.7494     18.3484
H      0.0102      7.8894      8.9479
C    -10.9305     17.9990      7.0462
H     -0.6930      4.1548     13.8443
C     -8.9117      5.7903      4.6665
C     -9.1914     15.9229      8.9858
H     20.9679     10.4620     13.8216
H      0.3372      6.1863     12.5063
C     -4.3304      6.6267     10.6733
H     -9.2979     16.6079     10.9737
H     -1.5659      5.7953     12.1474
C      4.1040      3.2179     17.4681
C     17.5440      9.7069     18.3013
C     -6.7945     12.1092      9.3901
C     -5.3062      9.4647      7.0953
C     -7.2875      4.5950      7.6226
C     -7.2961     13.2813      8.4361
H    -14.2553     16.8266      7.9297
H     -3.4263     10.1077     12.9519
H     -7.0654     11.9937     10.5664
H     -3.0755      6.0002     14.1977
C     14.6886      9.5284     14.3774
H    -10.2911     17.5403      9.8298
H     -1.4961      9.6804      3.3191
