5

C      6.8572     10.0611     11.0283
H      7.4507      9.2707     10.6912
H      4.9849     10.6008     12.2726
H      6.8995     10.6569     10.1237
C      5.8134      9.8658     11.9795
5

C      6.7765      9.7278     10.8598
H      7.4093      8.9442     10.7656
H      5.1977     10.6983     11.8470
H      7.0799     10.6410     10.3565
C      5.9320      9.8192     11.8306
5

C      6.8745      9.6615     10.8557
H      7.2421      8.6207     10.4609
H      5.4901     10.7218     11.7073
H      6.9823     10.5362     10.2526
C      5.8630      9.7610     11.8335
5

C      6.9163      9.5017     10.9659
H      6.6865      8.4586     10.5331
H      5.7535     10.8032     12.3940
H      7.3079     10.3822     10.2252
C      5.9027      9.9220     11.7177
5

C      6.9441      9.5029     11.0378
H      6.9801      8.5752     10.5034
H      5.6487     10.8308     11.9232
H      7.5606     10.1621     10.4924
C      5.8822      9.7146     11.7334
5

C      6.9048      9.5281     10.8372
H      7.0255      8.5858     10.4923
H      5.3175     10.6901     12.3035
H      7.9448      9.7878     10.7102
C      5.7646      9.7849     11.7064
5

C      6.8974      9.6236     10.8741
H      4.6600      9.3302     11.1765
H      5.2929     10.8660     12.1609
H      7.8448     10.2246     10.8117
C      5.6614      9.8364     11.4637
5

C      6.9230      9.7801     10.8508
H      4.9017      8.9542     11.5876
H      7.1449      8.8821     10.2410
H      7.8749     10.4508     10.9375
C      5.6977      9.7284     11.3914
5

C      6.6791      9.7192     10.7731
H      4.9165      9.7123     11.1962
H      7.3672      8.6774     10.8795
H      5.8198     11.4658     11.0846
C      5.7331     10.3165     11.3629
5

C      6.8465      9.6266     10.6431
H      4.7913     10.3907     10.8077
H      7.0921      8.3946     10.2151
H      6.0349     11.5159     11.5616
C      5.7587     10.3516     11.2263
5

C      6.8308      9.6992     10.8102
H      4.9088     10.4793     10.4894
H      7.0936      8.9201     10.1389
H      5.9158     11.1424     12.0025
C      5.7881     10.3554     11.1230
5

C      6.9713     10.0034     11.2557
H      7.1161      9.1182     10.4501
H      5.7353     11.3533     12.5036
H      7.9097     10.6398     11.5861
C      5.8314     10.4483     11.6915
5

C      7.0015      9.8359     11.2316
H      6.9463      9.4223     10.2687
H      6.0405     11.3069     12.4120
H      8.0209     10.1188     11.6613
C      5.8641     10.5155     11.5151
5

C      6.9426      9.7752     11.1412
H      6.7854      9.2528     10.0610
H      5.9065     11.3103     12.6025
H      8.1121     10.2586     11.1461
C      5.9302     10.5337     11.6208
5

C      6.8427      9.7668     10.8155
H      5.1480     10.6449     11.8597
H      6.6110     11.2834     12.5623
H      7.8974      9.8096     10.5844
C      6.1454     10.5760     11.4895
5

C      6.8146      9.7486     10.7771
H      5.0774     10.5626     11.7983
H      6.8316     11.0372     12.0541
H      7.8254     10.0851     10.6475
C      5.9980     10.7162     11.3840
5

C      6.8256      9.9371     10.7588
H      5.1175     10.5317     11.7774
H      6.6526     11.9086     11.6301
H      7.8455     10.1456     10.5577
C      6.0025     10.8116     11.2842
5

C      6.6266     10.1666     10.7924
H      4.8104     10.4786     12.1328
H      7.0831      9.2676     11.0297
H      6.6681     11.6035     12.0791
C      5.8558     10.7570     11.9435
5

C      6.7885     10.1653     10.7341
H      4.9056     10.8072     11.9588
H      6.9336      9.0178     10.6948
H      6.4128     11.8538     11.9557
C      5.9910     10.7930     11.8541
5

C      6.9365     10.2220     11.0717
H      4.9506     10.3947     10.9965
H      5.7261     10.6392     12.9189
H      7.3134      9.9058     10.0558
C      5.7982     10.2440     11.6786
5

C      6.9968     10.2458     11.2358
H      5.1658     10.5256     10.8152
H      5.5630     10.6570     12.8262
H      6.9712     10.1686     10.1078
C      5.8185     10.3876     11.7540
5

C      7.1428     10.3555     11.2250
H      5.1756     11.3343     11.2221
H      5.2067     10.3075     12.4476
H      6.9843     10.3010     10.0643
C      5.8763     10.6159     11.7574
5

H      9.2998      9.9494     10.0486
C      9.9282     10.7293     10.5223
H     10.7990      9.1024     11.4498
H     11.8119     10.7516     11.3634
C     10.9257     10.0567     11.1107
5

H      9.2818      9.6764     10.2919
C      9.8546     10.6363     10.5079
H     10.9498      9.2083     11.2120
H     11.8502     10.6289     11.5709
C     10.9287     10.2489     11.0454
5

H      9.1799      9.7153     10.1538
C      9.6606     10.5627     10.5403
H     11.0722      9.3508     11.1862
H     11.5154     10.8830     11.7043
C     10.9571     10.2907     10.9118
5

H      8.9149      9.8389     10.1923
C      9.5073     10.8333     10.4943
H     11.1038      9.5055     11.0026
H     11.5211     11.0727     10.3767
C     10.7288     10.3867     10.9481
5

H      8.2577     10.4527     10.2846
C      9.4930     10.8016     10.4689
H     10.2026      9.5440     11.6020
H     11.5662     10.5936     10.0971
C     10.6474     10.3315     10.9364
5

H      8.4553     10.7854     10.5998
C      9.4921     10.7837     10.2941
H     10.2651      9.8101     11.8589
H     11.5954     10.4006     10.5087
C     10.4662     10.2274     10.8737
5

C      8.9776      9.8736     10.0403
H      8.7055      8.9842      9.5472
H     10.7499     11.3068     10.9325
H     10.9278      9.2950     11.0879
C     10.2458     10.2580     10.7859
5

C      9.0160      9.9572     10.0721
H      8.7643      8.9203      9.8736
H     10.5985     11.1741     10.9201
H     11.0672      9.4108     10.7592
C     10.2027     10.1817     10.8504
5

C      9.0109      9.8703     10.1267
H      8.4250      9.2046      9.5112
H     10.6982     11.1925     10.5848
H     10.7329      9.5085     11.6164
C     10.1578     10.1313     10.7724
5

H      8.2014     10.8745     10.0051
C      8.9140      9.9068     10.1500
H      8.8101      9.1271      9.5278
H     10.2208     11.0937     10.7001
C      9.9808     10.1761     11.0225
5

H      8.3031     10.9985     10.3451
C      8.8476     10.0251     10.1526
H      8.2333      9.1910      9.8909
H     10.3400     11.0948     10.5849
C      9.9455     10.1610     10.9112
5

H      8.4262     11.1750     10.0529
C      8.7727     10.1660     10.2165
H      7.9085      9.3336     10.3052
H     10.2971     11.0516     11.5351
C     10.0416     10.0672     10.7237
5

C      6.1485     10.9781     10.8826
H      6.4408     11.7466     12.7467
H      7.1184     10.7795     11.0022
H      5.5177     10.1203     10.7730
C      5.9688     11.0661     12.1873
5

C      6.1536     10.9979     10.8903
H      6.6866     11.4322     13.2798
H      7.2622     10.9741     10.4684
H      5.5020     10.6711     10.1949
C      6.1120     10.9338     12.3154
5

C      6.2040     11.1073     10.9080
H      6.7716     11.3406     13.3280
H      7.2861     11.1509     10.4831
H      5.3147     10.6875     10.2515
C      6.0649     10.9951     12.3046
5

H      9.6707     12.1343     10.4185
C      9.6364     11.0464     10.3349
H      8.6516     10.7911     10.7273
H     11.3614     11.3032     11.0538
C     10.6572     10.4742     10.9604
5

H      9.3531     11.9601     10.2504
C      9.4886     10.8588     10.4156
H      8.2940     10.6064      9.9176
H     11.2895     11.4899     11.0302
C     10.7170     10.4417     10.9430
5

H      9.3498     11.8028     10.3966
C      9.5246     10.8387     10.5608
H      8.5598     10.1464      9.8987
H     11.3941     11.1383     11.2311
C     10.7283     10.4969     10.8224
5

C      9.3967     11.3082     10.9138
H      8.5662     10.7486     11.3721
H     11.3856     11.9451     11.4505
H     11.3615     10.2702     11.4653
C     10.8212     11.0863     11.0919
5

C      9.3540     11.3260     10.8604
H      8.5898     10.7906     11.1593
H     11.0832     12.0903     11.7037
H     11.3337     10.2353     11.3380
C     10.7355     11.2022     10.9733
5

C      9.3141     11.3747     10.7783
H      8.8974     10.4428     10.3847
H     11.4806     12.0929     11.3131
H     10.8316     10.1224     11.2848
C     10.6552     11.2368     10.9720
5

C      6.5741     10.9987     11.4355
H      6.6378     10.0202     10.7538
H      4.9363     11.4202     12.6341
C      5.4951     10.4919     12.0764
H      7.3674     11.4065     11.9013
5

C      6.6338     11.0425     11.3799
H      6.9231     10.5062     10.5639
H      5.3506     11.4464     12.5721
C      5.4718     10.5918     12.0294
H      7.4420     11.7326     12.0159
5

C      6.7030     11.0008     11.4918
H      6.7031     10.4599     10.6461
H      5.0262     10.7926     12.7889
C      5.4976     10.7017     11.8929
H      7.0447     11.8908     10.8747
5

C      6.5369     10.9287     11.4730
H      7.0169     10.1971     10.8822
H      5.0472     11.1788     12.8684
C      5.2813     10.3881     12.0310
H      6.5568     11.9479     11.3924
5

C      6.2926     10.8597     11.6241
H      7.2131     10.5755     11.2463
H      4.5090     11.0624     12.7876
C      5.2822     10.3763     12.1551
H      6.7068     11.7034     12.0221
5

C      6.6322     11.0225     11.6935
H      4.8241     11.2020     12.9309
H      4.7275     10.3553     11.4679
C      5.3291     11.0634     11.9333
H      6.7991     10.6435     10.7539
5

C      6.6594     10.9799     11.6248
H      4.9814     11.6057     12.8308
H      5.0394     10.4335     11.0416
C      5.2778     11.1443     11.8128
H      7.0481     10.4044     10.8643
5

C      6.7094     11.0051     11.6073
H      5.2224     11.3988     12.5715
H      4.5097     10.6450     11.1589
C      5.3187     11.0700     11.6126
H      7.4182     10.6659     10.8439
5

C      6.4991     10.6004     11.2782
H      7.2668     11.5228     11.3024
H      4.6127      9.6962     11.8953
C      5.3581     10.2935     12.0483
H      6.9069      9.7807     10.6329
5

C      6.5274     10.5682     11.2870
H      7.3891     11.2989     11.2632
H      4.4172     10.1079     11.5119
C      5.4757     10.2721     12.0553
H      6.7171      9.7487     10.4244
5

C      6.5374     10.5208     11.3897
H      7.4832     11.3220     11.1772
H      4.7167      9.6396     11.4674
C      5.4951     10.2397     12.1229
H      6.5118      9.6982     10.7523
5

C      6.6163     10.2999     11.1827
H      7.4147      9.4717     11.7402
H      5.3609     12.1413     11.3993
C      5.9280     11.2487     11.9576
H      6.3568     10.6994     10.1619
5

C      6.4453     10.2060     11.3488
H      7.1981      9.2744     11.0963
H      5.6679     11.7969     11.2512
C      5.9901     11.1631     12.1368
H      6.9787     10.7258     10.5343
5

C      6.3123     10.1682     11.4275
H      6.9943      9.2628     11.4003
H      5.7793     11.8932     11.5665
C      5.8512     11.2214     12.1851
H      6.6725     10.7655     10.7419
5

C      6.3274      9.9248     11.4733
H      5.9493     11.9499     11.6835
H      5.7816      8.9105     11.8049
H      4.7452     10.4576     12.0228
C      5.5996     10.9858     11.8366
5

C      6.3260      9.8390     11.5494
H      5.7394     11.3560     12.6307
H      7.4459      9.9893     11.8550
H      4.5749     10.4835     11.9811
C      5.5427     10.8185     11.8277
5

C      6.3796      9.9101     11.6272
H      5.8296     11.5398     12.9652
H      7.7003      9.7913     11.6210
H      4.2689     10.6208     11.6599
C      5.4306     10.9011     11.8099
5

C      6.2432     10.1858     11.6275
H      5.1360     11.5440     12.9631
H      7.0424      9.2544     11.0790
H      4.3198     10.5398     11.2962
C      5.3353     10.9835     11.7626
5

C      6.3953     10.2425     11.6355
H      5.4538     11.8798     12.4050
H      6.0638      9.5252     10.8749
H      4.1090     10.9936     11.3753
C      5.2277     11.0192     11.7124
5

C      6.3913     10.2788     11.6208
H      5.3313     11.5011     12.6949
H      6.1047      9.4761     10.9272
H      4.0999     10.8528     11.4309
C      5.2214     10.9995     11.5299
5

C      6.3685     10.1930     11.4435
H      5.6942     11.5267     12.4995
H      5.7804      9.3248     11.1357
H      4.5587     10.3632     11.6114
C      5.4001     11.0179     11.5143
5

C      6.3946     10.1859     11.3681
H      5.7700     11.2842     12.4345
H      5.8016      9.3487     11.0901
H      4.4695     10.4799     11.6310
C      5.3706     10.9760     11.5740
5

C      6.3291     10.1003     11.3559
H      5.6599     11.2299     12.6568
H      6.1497      8.9464     11.1017
H      4.2704     10.7444     12.0264
C      5.3274     10.9044     11.5304
5

C      6.3984     10.0698     11.2219
H      5.8010     11.4665     12.5819
H      5.8432      9.0190     11.1956
H      4.1767     10.7632     12.1310
C      5.1883     10.9031     11.6425
5

C      6.3942     10.0502     11.1528
H      5.5411     11.6205     12.6854
H      6.4107      9.0777     11.3832
H      4.4682     10.4402     11.6285
C      5.4225     10.9994     11.5854
5

C     10.0439      9.9123     10.2120
H      9.9916      9.1009     10.8212
H     12.0077     10.3175     10.5514
H     11.8256     11.1594      9.0977
C     11.3413     10.4263      9.8178
5

C     10.1514      9.9929     10.0558
H     10.1429      9.1887     10.8191
H     12.1989      9.4116     10.5104
H     11.7679     11.4251      9.6974
C     11.4528     10.2406      9.8383
5

C     10.0984      9.9820      9.8802
H     10.2157      8.9930     10.4592
H     11.9484      9.1452     10.1644
H     12.1356     10.8218      9.4377
C     11.4679     10.1572      9.8332
5

C     11.0256     10.8467      9.9177
H     12.0527     11.1415      9.6902
H     11.5538      9.2406     11.3988
H      9.9217      9.7472     10.9755
C     10.8512      9.9295     10.8913
5

C     10.9331     10.7232      9.8567
H     11.9746     11.0753      9.9780
H     11.6759      9.3787     11.1123
H     10.0830      9.5338     11.5087
C     10.8149      9.8648     10.9887
5

C     10.8668     10.6591      9.9221
H     12.0718     10.8130      9.3602
H     11.8891      9.4848     11.4048
H      9.9115      9.6120     11.4985
C     10.8204      9.9731     10.9131
5

C     11.0353     10.1068      9.2748
H     11.7775     10.4355      8.4614
H     10.4547      9.3584     11.0583
C     11.3736      9.6841     10.5813
H     10.4884      9.1344      9.0808
5

C     11.0182     10.0823      9.2451
H     11.6389     10.4189      8.3893
H     10.1725      9.6087     10.8885
C     11.4039      9.5415     10.5639
H     10.6710      8.9480      8.9195
5

C     11.0611     10.0403      9.2776
H     11.6404     10.1048      8.3568
H     10.4280      9.3972     11.0859
C     11.4916      9.5421     10.6528
H     10.2540     11.0996      9.3523
5

C     11.0607      9.9118      9.3173
H     11.3381      9.8657      8.2206
H     10.8458      9.2733     11.3130
C     11.5734      9.6828     10.6158
H     10.4616     10.8330      9.2288
5

C     10.8102      9.8384      9.3866
H     11.3391      9.5132      8.3294
H     10.5684     10.2351     11.2377
C     11.4939      9.6661     10.6756
H      9.9789     10.7010      9.5789
5

C     10.7056      9.8714      9.4222
H     11.4118      9.6709     11.1004
H      9.8864     10.9386     10.8892
C     10.9856     10.5220     10.6242
H      9.6674     10.6423      9.1499
5

C     11.1577      9.5368      9.3966
H     10.3304      9.7054     10.8725
H      9.7217     10.8690      9.5276
C     10.4573     10.4153     10.0909
H     11.2679      9.5320      8.4091
5

C     10.9905      9.6872      9.0987
H     10.1927     10.1748     11.1054
H     10.0029     11.1364      9.6865
C     10.4962     10.4218     10.2098
H     11.2226     10.2099      8.2127
5

C     11.0435      9.8533      8.9922
H     10.7155      9.9184     11.2167
H      9.8794     11.1467      9.8871
C     10.6042     10.3713     10.1668
H     11.1975     10.4460      8.0514
5

C     11.1592     10.0890      9.0033
H     11.1414      9.8005     11.0007
H      9.6772     11.0481      9.9286
C     10.6045     10.3470     10.2057
H     10.9915     10.4813      8.1350
5

C     11.1892      9.8472      9.3983
H     12.0869      9.8393      8.7246
H      9.9428     10.7421     10.8466
C     10.9206     10.4224     10.5831
H     10.3007     10.2869      8.6354
5

C     11.1922      9.8691      9.4127
H     11.9287      9.7500      8.9056
H      9.9722     10.6069     10.9612
C     10.9502     10.3945     10.6533
H     10.1858     10.2701      9.2207
5

C     11.1543      9.8517      9.5005
H     12.2209      9.7736      9.0392
H      9.7809     10.4991     10.9794
C     11.0290     10.3283     10.6910
H     10.3209     10.0735      8.7245
5

C     10.7356     10.0846      9.8133
H     11.9268      8.9551     10.4492
H      9.9129      8.7163     10.9732
C     10.9095      9.2331     10.6963
H      9.6234     10.2908      9.8114
5

C     10.7209     10.1281      9.7251
H     11.7750      8.4239     10.8296
H     10.0006      9.1401     11.1436
C     10.9362      9.0952     10.7570
H      9.8565     10.5285      9.6166
5

C     10.6075     10.0855      9.8213
H     11.5943      8.7543     10.3604
H      9.9968      9.0032     11.5205
C     10.8025      9.1946     10.6403
H      9.6858     10.4393     10.0164
5

C     10.9918     10.3010      9.1280
H     11.4789      9.5230      8.5195
H     12.0881      9.5109     10.8713
C     11.0233      9.7998     10.2966
H     10.1211     10.7652      8.6999
5

C     11.0115     10.2987      9.1998
H     11.6041      9.3681      8.4013
H     11.8188      9.5474     11.1674
C     11.0061      9.8015     10.4926
H     10.0249     10.4115      8.5578
5

C     10.8548     10.1790      9.3485
H     11.2495      9.7084      8.6187
H     11.6961      9.0126     10.8163
C     10.8872      9.6048     10.5401
H      9.8263     10.8096      9.3188
5

C     10.6915     10.3712      9.4059
H     11.6265     10.6050      8.7418
H     12.1667      9.7174     10.7540
C     11.0195      9.6333     10.5251
H      9.7431     10.5624      9.2282
5

C     10.6957     10.5867      9.5123
H     11.0537     10.2512      8.5032
H     12.1633      9.5537     10.8072
C     11.0387      9.7432     10.4230
H      9.8044     10.6806      9.4201
5

C     10.7112     10.6106      9.4792
H     11.7229     10.5567      8.8010
H     11.9864      9.4416     10.2649
C     11.0036      9.7218     10.5018
H      9.7289     10.5961      9.1141
5

C     10.6834     10.4499      9.4217
H     11.5043     11.1469      8.8184
H     12.0842      9.4654     10.2921
C     10.9585      9.8229     10.4729
H      9.8306     11.0872      9.0765
5

C     10.4981     10.4225      9.3603
H     11.5086     10.9439      9.2049
H     11.5978      9.1808     10.6646
H      9.8402      9.7203     11.2092
C     10.5562      9.5215     10.3805
5

C     10.4069     10.4246      9.3487
H     11.3567     10.9648      9.1519
H     11.6542      9.3100     10.3291
H      9.6608      9.1699     10.8705
C     10.6082      9.6288     10.4550
5

C     10.3359     10.4193      9.7500
H     10.9952      9.9079      9.0454
H     11.4382      9.1295     11.1289
H     10.1628     10.2409     11.8166
C     10.6299      9.8667     10.8649
5

C     10.3133     10.4277      9.7975
H     10.9480     10.4362      9.0475
H     11.5349      9.1116     11.1225
H     10.3263     10.1293     11.8170
C     10.5867      9.7863     10.9168
5

C     10.4160     10.5098      9.8163
H     10.7662     10.2157      8.9742
H     11.2652      9.1097     10.9454
H     10.3923     10.3345     12.0852
C     10.6132      9.8483     11.0022
5

C     10.3772     10.3867      9.8797
H     10.5785      9.9510      8.9815
H     11.6717      9.4295     10.9568
C     10.5227      9.5988     11.0596
H      9.2957     10.7865      9.5390
5

C     10.2978     10.2088      9.9246
H     10.9484      9.9967      8.8770
H     11.7090      9.5542     10.9613
C     10.5000      9.4732     11.0896
H      9.3040     10.4768      9.8796
5

C     10.3704     10.1072      9.8814
H     11.0246     10.3280      9.2716
H     11.3919      8.9992     11.1127
C     10.5681      9.6388     11.0554
H      9.4089     10.8091      9.3213
5

C     10.3725     10.2059      9.7058
H     11.3355      9.7976      9.2018
H     11.4567      9.2630     11.4456
C     10.5160      9.6144     10.9654
H      9.1636     10.4273      9.5042
5

C     10.5825     10.1689      9.7157
H     11.3197     10.0685      8.8795
H     11.3911      8.8632     10.9488
C     10.5660      9.5754     10.8979
H      9.6932     10.7935      9.5836
5

C     10.6643     10.1715      9.7019
H     11.7227     10.2193      9.3995
H     11.5457      9.2903     11.4475
C     10.6816      9.7058     10.9448
H      9.6715     10.6556      9.3102
5

C     10.7150      9.9803      9.6964
H     11.7671      9.6388      9.0902
H     11.1013      9.2337     11.8029
C     10.4972      9.5850     10.9601
H      9.9755     10.0697      8.7934
5

C     11.6307      2.8355      1.2364
C     13.0719      2.7919      0.7637
H     10.9838      2.1530      0.3089
H     13.4033      3.4480     -0.2019
H     13.2678      1.6570      0.9090
5

C     10.5468      9.8933      9.6994
H     11.7403      9.8517      9.2538
H     11.4598      9.2981     11.1651
C     10.4660      9.7534     10.9986
H     10.0136     10.3550      8.9942
5

C     11.8318      2.5668      1.4289
C     13.1305      3.1643      1.1988
H     11.5095      1.5099      0.6428
H     13.0684      3.4720      0.1222
H     13.6499      2.3273      0.8518
5

C     10.5749      9.9597      9.8475
H     11.3679      9.7480      9.2341
H     11.3970      9.6156     11.9009
C     10.5680      9.7650     11.1238
H      9.9109     10.7164      9.4387
5

C     11.9187      2.4794      1.6519
C     13.2154      3.0744      1.2721
H     11.5271      1.8698      0.7265
H     13.0122      3.7552      0.4276
H     13.9484      2.2008      1.0446
5

C     10.6458      9.9936      9.9117
H     11.2755      9.3665      9.4214
H     11.1982      9.8544     12.2698
C     10.6517      9.8006     11.3445
H      9.7131     10.2979      9.7742
5

C     10.6434      9.8695      9.9207
H     11.4918      9.4958      9.1553
H     11.4956      9.7324     11.9131
C     10.6119      9.7754     11.2149
H      9.5475     10.2144      9.4756
