8

O     11.3767      1.4896      1.9916
C     11.9716      2.7076      1.5368
C     12.9947      2.4489      0.5448
H     13.8365      1.9650      1.0732
H     11.7476      0.7352      2.3997
H     11.2847      3.4422      1.0960
H     13.2427      3.0849     -0.3788
H     12.6320      1.6174     -0.1018
8

O     11.4455      1.4778      2.0686
C     11.9577      2.6066      1.6485
C     13.0088      2.3853      0.4699
H     14.0280      2.2788      0.3855
H     12.0653      0.8718      2.1979
H     11.4809      3.5961      1.0668
H     12.7572      3.5166      0.0815
H     12.4672      1.7703     -0.1040
8

O     11.4336      1.4076      2.0984
C     12.0690      2.5264      1.6604
C     13.0231      2.3737      0.3743
H     14.0260      2.0739      0.4747
H     12.2554      0.8251      2.2188
H     11.3134      3.1194      1.2663
H     12.8715      3.4839      0.1872
H     12.2005      1.8757      0.0275
8

O     11.4871      1.3327      1.9884
C     11.9871      2.6146      1.5784
C     12.8509      2.4074      0.3414
H     13.9736      2.3927      0.1831
H     12.3019      0.8195      1.7307
H     11.1310      2.8410      1.1110
H     12.3422      3.4031     -0.1804
H     12.4646      1.8184     -0.2850
8

O     11.5005      1.3477      1.9928
C     11.6976      2.6657      1.3361
C     12.6528      2.4719      0.2871
H     13.7378      2.5938      0.2279
H     12.4161      1.3126      1.5101
H     10.7073      3.1016      0.8659
H     11.9977      3.2019     -0.4261
H     12.1342      1.5044     -0.2342
8

O     11.5271      1.3607      2.0908
C     11.7371      2.6679      1.3104
C     12.5984      2.5161      0.1659
H     13.8723      2.4906      0.3514
H     12.4402      1.0421      1.8315
H     10.8117      3.1184      0.9814
H     12.0301      3.5622     -0.1751
H     12.2676      1.6088     -0.3388
8

O     11.4358      1.5146      2.2473
C     11.7688      2.6777      1.4461
C     12.5730      2.6585      0.1607
H     13.5816      3.1945      0.1044
H     12.4183      1.5036      2.5879
H     10.6845      2.7551      1.2672
H     11.8863      3.5636     -0.4006
H     12.3492      1.5273     -0.2991
8

O     11.4803      1.6615      2.4331
C     11.7086      2.7308      1.4893
C     12.5350      2.8550      0.1953
H     13.5732      2.9843     -0.0848
H     11.8471      1.4501      3.2780
H     10.8045      2.7631      0.7572
H     12.0626      3.0404     -0.8012
H     12.2540      1.6572     -0.2114
8

O     11.6337      1.4926      2.3251
C     11.8539      2.8810      1.3853
C     12.4406      2.8120      0.0747
H     13.5935      2.9521      0.4148
H     12.6209      1.2942      2.2792
H     10.7439      2.8147      1.3943
H     11.6925      3.5490     -0.1177
H     12.5791      1.6639     -0.2031
8

O     11.8677      1.8651      2.1911
C     11.7131      2.8112      1.4600
C     12.3801      2.8340      0.0770
H     13.3153      3.3852     -0.1523
H     12.7920      1.3897      2.3872
H     10.5682      2.9313      0.8377
H     11.6254      3.1613     -0.7157
H     12.3604      1.7203      0.5442
8

O     11.9735      1.9105      2.4036
C     11.7354      3.0696      1.4076
C     12.6941      2.6539      0.2241
H     13.6418      2.9577      0.0437
H     12.9405      1.6723      2.0047
H     11.1901      2.3105      0.9475
H     11.7111      3.0420     -0.6552
H     12.2147      1.3957      0.1691
