12

C      6.7996      9.9201     10.3558
C      6.1786      8.5121      9.8680
H      6.5538     11.7896     10.6927
H      7.3430     10.1860      9.4177
H      7.3427      9.4716     11.1667
H      4.9274      7.0004      9.4062
H      4.9533     11.0874     10.0496
H      5.7413     10.6655     11.7572
C      4.8511      8.0177      9.9736
H      4.3759      8.9283      9.6952
C      5.9216     11.0236     10.6722
H      4.4823      7.9196     10.8538
12

C      6.8541      9.8922     10.2589
C      6.3082      8.4613      9.7338
H      6.3582     12.0750     11.1258
H      7.3876     10.5162      9.6353
H      7.2557      9.3191     11.3143
H      4.7118      6.8275      9.4234
H      5.1831     11.4234     10.0315
H      5.5419     10.8078     11.5512
C      4.8944      8.0998      9.8799
H      4.3823      9.0806      9.5657
C      5.9916     11.0609     10.6184
H      4.3926      7.9452     11.0267
