14

C     10.1193     13.3587     11.1816
C      9.5727     12.6886     12.2850
H     10.4711     12.1155     12.5994
O      8.8814     11.7632     14.0432
O      9.5386     14.4888     10.6691
C      9.0478     13.2404     13.6687
H      7.4343     11.5009     11.6950
H      8.8593     10.6863     11.1666
H     11.7452     13.6752      9.8179
N     11.0124     12.8926     10.2553
H      7.8671     11.7483     14.0785
C      8.3833     11.6751     11.3826
H     11.1552     11.8924     10.2043
H      8.4882     12.1971     10.4241
14

C      9.5582      0.5441     10.7440
C      9.4026     -0.3400     12.0079
O      8.4423     -0.5820     14.3109
O      8.9256      1.6378     10.7989
C      9.1624      0.2821     13.7247
H      7.8235     -1.8702     12.8103
H      8.0503     -1.6615     10.8634
H      8.7257      1.1978     13.3851
H     10.1091      0.5337     14.1694
H     11.4711      0.8353     11.4119
N     10.9013      0.4031     10.3726
H      9.1132     -1.1739     14.8427
C      8.1221     -1.0955     11.8365
H     10.9459     -0.6527     10.3170
14

C      9.8987      0.4045     10.9614
C      9.7229     -0.7011     11.7991
H     10.8385     -1.0551     11.7734
O      8.4844      0.2166     14.2680
O      9.5302      1.6771     11.4713
H      7.5442      0.0150     13.6448
C      9.5896     -0.1161     13.3653
H      7.9496     -0.5777     12.3329
H      8.4700     -2.3411     11.7790
H     10.2573     -0.8200     13.9605
H     11.5185     -0.5043      9.8253
N     10.9850      0.3524      9.9098
C      8.3710     -1.2948     11.7539
H     10.4103      0.6208      9.0546
14

C      9.9167      0.5157     10.8994
C      9.6967     -0.7249     11.8716
H     10.6087     -1.3183     11.6008
O      8.3877      0.2188     14.2214
O      9.5695      1.6789     11.4721
H      7.7755      0.6981     13.5379
C      9.6372     -0.1300     13.4486
H      7.6144     -0.5820     12.4492
H      8.0925     -2.2919     12.0502
H     10.2929     -0.8553     14.3037
H     11.3057     -0.6530      9.8002
N     10.9143      0.3958      9.9744
C      8.4186     -1.2556     11.6667
H     10.5669      0.9037      9.1567
