14

C      6.8948      9.6210     10.3492
C      6.2094      8.8424      9.4738
H      7.6762     10.2308      9.8885
H      7.3241      9.1066     11.3285
H      4.6267      8.0199      8.4448
C      6.6822      8.6879      8.2318
C      4.5799      8.5007      9.4112
H      6.2384      7.9548      7.6724
H      8.5868      8.9297      8.8276
H      3.9180      9.2213      9.4489
H      4.2949      7.6864     10.1230
H      7.6770     10.3314      8.1672
H      8.6006      9.0082      7.0607
C      7.9630      9.2933      7.8624
14

C      6.7451      9.7513     10.3305
C      6.1794      8.8999      9.3297
H      7.6247     10.4605      9.9789
H      7.3461      9.2430     11.3211
H      4.3852      7.5026      8.6583
C      6.7115      8.6881      8.1407
C      4.5896      8.3860      9.4661
H      6.2202      7.9971      7.3788
H      8.7142      8.8262      8.6446
H      3.7992      9.0328      9.2564
H      4.4635      7.9634     10.3752
H      8.0418     10.3152      7.8960
H      8.4220      9.0578      6.8311
C      8.0158      9.1762      7.9639
14

C      6.6960      9.8698     10.3515
C      6.0564      8.9178      9.1923
H      7.4570     10.3357      9.8429
H      6.9447      9.1773     11.1912
H      4.3017      7.3479      8.9632
C      6.7408      8.7601      8.1066
C      4.4558      8.4210      9.5948
H      6.2715      8.3440      7.1889
H      8.8378      8.7467      8.8297
H      3.6281      9.0368      9.3579
H      4.7181      8.1784     10.6245
H      8.4500     10.3710      8.1831
H      8.1787      9.3098      6.7930
C      8.1484      9.1298      7.9511
14

C      6.6278      9.9467     10.3992
C      6.0005      8.9654      9.3139
H      7.8407     10.3763     10.0484
H      6.9290      9.2346     11.4232
H      4.0259      7.4868      9.0371
C      6.6975      8.8396      8.1419
C      4.4746      8.3833      9.6484
H      6.1384      8.3597      7.3759
H      8.8050      8.5417      8.9137
H      3.6605      9.0799      9.6584
H      4.8150      8.0132     10.5628
H      8.5887     10.1209      8.4786
H      8.5411      9.3280      6.8670
C      8.2947      9.2181      7.9886
14

C      6.6848     10.0079     10.3403
C      5.9839      8.9958      9.2966
H      7.6138     10.6286     10.0864
H      6.8433      9.1697     11.1063
H      4.1542      7.4218      9.3185
C      6.6696      8.8448      8.2320
C      4.5536      8.3266      9.6577
H      5.8116      8.5676      7.3182
H      8.8395      8.9225      8.8657
H      4.1326      9.3050      9.7531
H      4.5254      7.8526     10.8033
H      8.8227     10.3883      8.3858
H      8.4078      8.9610      7.1151
C      8.3689      9.3646      8.0897
14

C      6.7326      9.9048     10.3482
C      5.9080      9.0461      9.2364
H      7.6722     10.4542     10.0347
H      6.8974      9.1466     11.1174
H      4.0481      7.4873      9.1990
C      6.7097      8.9892      8.2134
C      4.5719      8.3463      9.6467
H      6.3568      8.6659      7.3359
H      8.6918      8.8395      9.0382
H      3.9007      9.2916      9.5232
H      4.8012      7.8246     10.4807
H      8.5446     10.3375      8.0556
H      8.1858      8.7792      7.2252
C      8.2325      9.4394      8.1806
