18

C      6.8036      9.4494     10.2786
C      6.4392      7.9884      9.8306
H      6.1964     11.3812     11.7920
H      7.1521      9.8679      9.4342
H      7.6159      9.5877     11.0149
H      5.1394      6.8027      8.3702
H      6.5619     11.6560     10.1577
H      4.8031     10.5698     11.1362
C      7.1062      7.9221      8.5009
C      5.0889      7.7060      9.3053
H      6.3070      7.9783      7.7837
H      5.2668      8.8480      8.8480
C      5.8559     10.7028     10.8212
H      4.4011      7.8539     10.1798
H      8.8432      8.6070      9.2994
H      7.6234      6.8514      7.8911
H      7.9210      9.7384      8.4284
C      8.3246      8.6869      8.2697
18

C      6.6437      9.6036     10.3180
C      6.1676      8.0756      9.7968
H      5.8646     10.7195     11.9075
H      7.2733      9.7475      9.3942
H      7.0036      9.1864     11.4028
H      4.9974      6.8425      9.2270
H      6.5419     11.5853     10.1808
H      4.9932     10.8117     10.7982
C      6.9521      7.9392      8.5295
C      4.9394      7.9847      9.1678
H      6.4987      7.8516      7.6147
H      8.9095      7.8611      7.8832
H      4.7608      8.5068      8.2161
C      5.9939     10.7383     10.7490
H      3.9643      8.1436      9.9555
H      7.3148      6.8895      8.3696
H      8.3274      9.6532      7.7971
C      8.1512      8.7835      8.3101
18

C      6.6422      9.3953     10.4467
C      6.4431      8.0640      9.7310
H      6.2331     11.2788     11.9294
H      7.5970      9.7487     10.0748
H      6.8840      9.1513     11.3977
H      5.0568      6.7644      8.8927
H      6.2806     11.8333     10.3002
H      4.8764     11.3053     10.5272
C      7.0016      7.9289      8.5098
C      4.9327      7.7948      9.4044
H      6.6082      8.0357      7.6019
H      8.8057      8.1366      7.7646
H      5.1261      8.2393      8.4447
C      5.9585     10.8411     10.7776
H      4.0683      7.2848     10.0211
H      7.2831      6.8177      8.5742
H      7.9997      9.8717      8.0012
C      8.1372      8.7926      8.3367
18

C      6.6798      9.4173     10.5850
C      6.6090      7.9285     10.0980
H      5.5717     10.9279     12.0815
H      6.6626      9.1495     11.6392
H      5.1429      6.9244      8.7758
H      6.3455     11.7464     10.5006
H      4.9553     10.6906     10.4351
C      7.0728      7.9772      8.4639
C      5.1568      7.6957      9.6223
H      6.2132      8.1258      7.9326
H      9.0925      8.4401      7.5825
H      4.8797      8.6438      9.2097
C      5.9288     10.8065     10.9222
H      4.1998      7.3522     10.1352
H      8.8108      9.2717      9.1781
H      7.3623      7.1691      7.6564
H      7.7206     10.0640      7.9613
C      8.1779      8.9557      8.3055
18

C      6.7744      9.4944     10.7364
C      6.5775      8.1033     10.0376
H      5.5662     10.8681     11.8516
H      6.8934      9.2808     11.8006
H      5.0904      7.0532      8.8921
H      6.6999     11.4954     10.9589
H      5.0898     10.5714     10.1257
C      7.1819      8.0410      8.5551
C      5.2006      7.7779      9.5718
H      6.2300      8.0465      7.8032
H      8.9738      8.4381      7.7550
H      4.7426      8.6734      8.8238
C      5.8451     10.7801     10.8152
H      4.5030      7.4889     10.5525
H      8.5770      9.3889      9.1690
H      7.4646      7.4279      7.3924
H      7.6185      9.8091      7.8701
C      8.2951      9.1316      8.2309
18

C      6.8029      9.3546     10.5777
C      6.5177      8.2122      9.8806
H      5.7996     10.7164     11.5500
H      7.6692      9.3460      9.9035
H      7.1068      9.0111     11.5321
H      5.0406      7.4000      8.8457
H      6.8621     11.5663     10.6368
H      5.8197     10.5875      9.3538
C      6.9306      8.1094      8.4563
C      5.1365      7.9881      9.7621
H      6.0282      8.6731      8.1210
H      8.6263      8.6555      9.0667
C      6.3263     10.5286     10.5034
H      4.5401      7.3769     10.5546
H      7.6945     10.3029      8.4997
H      7.3761      7.1307      7.7982
H      8.7076      9.2650      7.2804
C      8.0156      9.1068      8.3802
18

C      6.9843      9.2300     10.6324
C      6.5651      8.1389      9.9053
H      5.7357     10.6336     11.7916
H      7.9369      9.4453     10.0700
H      7.3984      9.2373     11.6347
H      4.7681      7.3772      8.9359
H      6.8215     11.4770     10.5008
H      5.5721     10.5011      9.9487
C      6.9692      8.1368      8.4735
C      5.1099      8.0261      9.7748
H      6.0105      8.4927      7.8934
H      8.6829      9.1089      9.3832
C      6.2932     10.5704     10.6809
H      4.4424      7.5556     10.6011
H      7.4906     10.0435      8.6783
H      7.8530      7.2332      8.0335
H      8.6920      8.7213      7.5753
C      8.1156      9.1717      8.4213
18

C      6.9549      9.2295     10.6084
C      6.4581      8.1042      9.9024
H      5.4918     10.6128     11.5321
H      7.9610      9.2809     10.3522
H      7.2400      9.2777     11.8076
H      4.9168      7.4292      8.9214
H      6.9558     11.2324     10.3497
H      5.4293     10.6169      9.7639
C      6.9513      8.2047      8.5467
C      5.0703      8.0904      9.7373
H      6.0198      8.5761      8.1429
H      8.7194      8.6197      9.1224
C      6.3109     10.5894     10.7201
H      4.4565      7.5479     10.4415
H      7.1532      9.7597      8.3087
H      7.4135      7.3386      8.0416
H      8.6419      8.8498      7.6046
C      8.1567      9.2336      8.4498
18

C      7.0048      9.7161     10.2490
C      6.2987      8.6332      9.5835
H      5.7945     11.3477     11.3031
H      7.7162     10.0498      9.6094
H      7.3038      9.4294     11.2891
H      4.9439      7.1372      9.0971
H      6.1837     11.7911      9.5908
H      5.1568     10.6121     10.3877
C      6.7549      8.5995      8.4343
C      4.9663      8.0644      9.8193
H      6.1793      8.1813      7.5938
H      8.5909      9.0796      8.9448
H      4.1946      8.7897      9.6282
C      6.1464     10.8810     10.4635
H      4.2325      7.7306     10.5656
H      8.0930     10.1122      7.7973
H      8.4486      8.6141      6.9849
C      8.0480      9.0273      7.9836
18

C      7.0643      9.7876     10.2463
C      6.2401      8.7671      9.5134
H      6.1836     11.4026     11.4925
H      7.9363     10.2165      9.8666
H      7.0218      9.3351     11.1436
H      4.8385      7.4612      9.1737
H      6.1570     11.8468      9.8096
H      5.1118     10.3279     10.4190
C      6.6717      8.6254      8.2537
C      4.9515      8.1042      9.9421
H      6.2004      8.0132      7.6304
H      8.8707      9.0438      8.7182
H      4.1920      8.8681      9.6907
C      6.1087     11.0095     10.3608
H      4.9350      7.6169     10.8625
H      7.8124     10.2267      8.0927
H      8.0064      8.5565      6.9454
C      8.0838      9.0749      7.9370
18

C      6.8574      9.7930     10.3374
C      6.0597      8.9172      9.4254
H      5.5840     11.0192     12.0463
H      7.8139     10.3058      9.9665
H      7.0679      9.4080     11.2399
H      4.7443      7.3782      8.8991
H      5.3727     11.6060     10.3421
H      4.7077     10.1913     11.2207
C      6.7129      8.8380      8.2083
C      4.5604      8.4424      9.3674
H      5.7336      8.2855      7.5628
H      8.9750      8.8942      8.4393
H      4.0524      9.3653      9.6893
C      5.6288     10.8009     11.0576
H      4.4385      7.8989     10.3627
H      8.0879     10.3701      7.8703
H      8.3022      8.8330      6.9256
C      7.9939      9.2776      7.7743
18

C      6.8196      9.6564     10.3412
C      6.0979      8.8516      9.4289
H      6.0142     11.0328     12.0308
H      7.9263      9.7161     10.0576
H      7.2706      9.0818     11.1816
H      4.5652      7.5392      8.7502
H      5.4401     11.6284     10.4046
H      4.7896     10.1014     11.0458
C      6.6947      8.7431      8.2641
C      4.4713      8.4459      9.3719
H      6.0873      8.2220      7.6865
H      9.0270      8.9311      8.3845
H      3.9697      9.4415      9.3403
C      5.6792     10.7883     11.0339
H      4.2135      7.8662     10.4920
H      8.2017     10.2936      7.9595
H      8.3444      8.8843      6.9189
C      7.9523      9.2554      7.8487
18

C      6.4841      9.8706     10.5233
C      6.1079      9.0360      9.4924
H      6.7069     11.5960     10.6325
H      7.2621     10.0146      9.7661
H      6.7988      9.2704     11.4432
H      4.4408      7.6832      9.0330
H      5.1037     11.3074      9.7715
H      5.0771     10.7427     11.6732
C      6.7245      8.6971      8.2030
C      4.7505      8.5186      9.7307
H      6.5156      8.3367      7.2960
H      8.6781      9.0847      9.2554
H      3.7098      9.3163      9.6012
C      5.7193     11.0961     10.6633
H      4.4880      8.3917     10.6263
H      8.4417     10.0270      8.1037
H      8.7683      8.6671      7.1841
C      8.1123      9.1172      8.2515
18

C      6.9110      9.8752     10.5615
C      6.1852      8.7633      9.6455
H      5.7865     12.1230     10.6943
H      7.4971     10.2466      9.6367
H      6.9553      9.7922     11.7006
H      4.5362      8.8641      8.7662
H      4.8975     10.7698     10.5029
H      5.7702     10.9739     11.8756
C      6.7805      8.5779      8.3702
C      4.7936      8.4056      9.6614
H      6.1194      8.4465      7.6062
H      8.7832      9.3562      8.8059
H      4.3918      9.3856     10.1281
C      5.8278     10.9740     10.7229
H      4.4193      7.3140      9.7534
H      7.6060     10.5696      8.2579
H      8.4777      9.3949      7.0622
C      7.8884      9.4744      8.0828
18

C      6.8735      9.9053     10.4484
C      6.3334      8.6190      9.8066
H      6.0259     12.0678     10.2118
H      7.8849     10.5673     10.1567
H      6.9346      9.3096     11.4240
H      4.5017      8.3605      8.6813
H      4.8972     10.6392     10.5127
H      5.8526     11.0354     11.9491
C      6.7086      8.5211      8.5003
C      4.7804      8.2795      9.6923
H      6.4143      7.8062      7.9154
H      8.7322      8.9069      8.7290
H      4.4537      9.2331      9.7021
C      5.9505     10.9156     10.7884
H      4.3042      7.5028     10.1846
H      7.6195     10.2481      8.3869
H      8.2032      9.1163      6.9758
C      7.9357      9.3145      8.1111
18

C      6.9566      9.7962     10.4309
C      6.3906      8.6560      9.8071
H      6.6617     11.4942     10.2106
H      7.6615      9.7327      9.7688
H      7.6251      9.4419     11.2549
H      5.0172      7.4302      8.9436
H      5.0316     10.7344     10.4140
H      6.3780     11.1947     11.9046
C      6.6878      8.6948      8.4940
C      4.8798      8.2096      9.7247
H      6.0025      8.1499      8.0225
H      8.8253      8.9549      8.8753
H      4.3418      9.1649      9.4344
C      5.9978     10.8345     10.9120
H      4.4971      7.6071     10.3249
H      8.1585     10.2470      8.0554
H      8.3008      8.9538      7.1011
C      7.9517      9.1646      7.9896
18

C      7.0588      9.7466     10.5786
C      6.1979      8.6199      9.6421
H      5.9221     12.0569     10.3720
H      7.9213     10.2460     10.1679
H      6.9034      9.3689     11.5160
H      4.7458      7.4275      8.6118
H      5.2349     10.6516     10.5753
H      5.7873     11.1258     11.6890
C      6.4960      8.7032      8.2875
C      4.8869      8.0715      9.5941
H      6.2081      8.1367      7.4943
H      8.5601      8.4698      8.6452
H      4.2425      8.8203      9.1972
C      6.2936     11.0835     10.7159
H      4.5567      7.6207     10.3427
H      8.0347     10.3066      8.3339
H      7.9420      9.1061      7.0965
C      7.8626      9.2638      8.1173
18

C      6.8049      9.7969     10.6266
C      6.1670      8.7868      9.6579
H      6.2014     11.6766     10.0118
H      7.6949      9.6645     10.0063
H      6.8654      9.2065     11.6849
H      5.0802      7.3701      8.7228
H      5.1693     10.7480     10.1308
H      6.0575     11.2794     11.7027
C      6.5706      8.6579      8.3223
C      4.7355      8.1214      9.5861
H      6.0912      8.3012      7.6398
H      8.5465      9.0837      8.8207
H      4.3991      9.1326      9.2970
C      6.0138     10.9431     10.6366
H      4.6249      7.4219     10.5119
H      8.0485     10.2655      8.1415
H      8.3668      8.8772      6.9991
C      7.8848      9.2158      8.0860
18

C      6.7919      9.6270     10.6540
C      6.0350      8.7450      9.5223
H      6.6327     11.3934      9.9002
H      7.8698      9.8059     10.4741
H      6.7105      9.0776     11.6328
H      4.6229      7.5153      8.5611
H      4.9710     10.7171     10.3021
H      5.7888     11.3861     11.4517
C      6.5756      8.6709      8.3581
C      4.6511      8.2403      9.4115
H      6.1448      8.0370      7.8428
H      8.4962      8.7776      8.8943
H      4.2860      9.3111      9.3823
C      5.9152     10.9155     10.5064
H      4.1765      7.9320     10.5072
H      7.7062     10.2194      8.0442
H      8.5398      9.0960      7.0573
C      7.9011      9.1632      8.0717
18

C      6.6092      9.3632     10.5414
C      6.0012      8.7072      9.5201
H      6.5795     11.3643      9.5917
H      7.7194      9.4766     10.3657
H      6.3961      9.1230     11.6118
H      4.0977      7.6481      9.0396
H      5.1256     10.7995      9.6985
H      6.1854     11.5026     11.3671
C      6.6532      8.6501      8.2519
C      4.5096      8.4747      9.4393
H      6.3514      7.8942      7.8355
H      8.8169      8.8259      8.7997
H      3.7887      9.1113      9.1059
C      6.0570     10.8230     10.3690
H      3.9753      8.0753     10.4591
H      7.9698     10.3123      8.5925
H      8.0839      9.1536      6.9357
C      7.9828      9.2901      8.1057
18

C      6.4934      9.3765     10.5277
C      5.8317      8.5961      9.3115
H      7.1197     11.0794      9.5295
H      7.5069      8.9555     10.4788
H      6.0982      8.9400     11.4894
H      4.3107      7.7693      9.0084
H      5.0669     10.9065      9.9710
H      6.2274     11.4714     11.2900
C      6.7136      8.6533      8.3362
C      4.3970      8.5402      9.6105
H      6.5685      7.9389      7.7586
H      8.9289      8.7663      8.2477
H      4.0822      9.6825      9.6065
C      6.2921     10.7197     10.1892
H      4.5376      8.1699     10.6958
H      8.1999     10.3383      8.8636
H      8.3038      9.9557      7.3422
C      8.0038      9.4121      8.2508
18

C      6.4014      9.2539     10.4731
C      5.8270      8.7126      9.3406
H      7.1782     11.1952      9.3888
H      7.4466      9.1171     10.6706
H      5.7125      9.2436     11.3825
H      3.5773      7.8268      9.2640
H      5.3131     10.9211      9.4324
H      6.3182     11.5135     11.2088
C      6.7711      8.6466      8.3247
C      4.4157      8.3596      9.6795
H      6.7705      8.1945      7.5412
H      8.8137      8.5268      8.7159
H      3.8529      9.3823     10.0267
C      6.4184     10.8077     10.1405
H      4.3764      7.7247     10.5576
H      8.1650      9.7277      9.5482
H      8.4598      9.8386      7.5446
C      8.0564      9.4058      8.5100
18

C      6.4095      9.3147     10.4906
C      5.9313      8.6531      9.2119
H      7.0359     10.9710      9.3474
H      7.3132      8.4474     10.5780
H      5.6621      9.0964     11.1584
H      3.6151      7.8929      9.2142
H      5.3700     10.9640     10.2203
H      6.2017     11.4613     11.0542
C      6.8681      8.7243      8.2962
C      4.4474      8.3276      9.7536
H      6.6880      8.3236      7.2953
H      8.7879      8.4887      8.8751
H      4.4014      9.3096     10.0887
C      6.3794     10.8899     10.1998
H      4.7164      7.8187     10.8619
H      8.1265      9.7221      9.6404
H      8.6888      9.8202      7.9186
C      8.0925      9.2882      8.6365
18

C      6.3970      9.4062     10.5411
C      5.9247      8.5510      9.2981
H      6.7920     11.0408      9.3369
H      7.2768      8.6525     10.7011
H      5.6802      8.9203     11.1492
H      3.9584      7.6559      9.1720
H      5.1534     11.2940     10.1453
H      6.3779     11.5946     11.0251
C      6.8854      8.7734      8.3579
C      4.4984      8.3444      9.8194
H      6.6893      8.3853      7.3615
H      8.8712      8.2419      8.9122
H      4.3854      9.4872     10.0592
C      6.2897     10.8056     10.2371
H      4.5578      7.7084     10.7253
H      7.8830      9.7757      9.5120
H      8.8483     10.0293      7.9380
C      8.1764      9.2650      8.6617
18

C      6.4037      9.6090     10.8573
C      5.7867      8.6279      9.6573
H      7.2404     11.1767      9.8281
H      7.5709      9.1882     10.7842
H      6.0943      9.7366     11.7963
H      4.0362      7.3800      9.3565
H      5.3897     11.5271      9.6907
H      6.3809     11.9262     11.2019
C      6.5168      8.6370      8.5230
C      4.3531      8.3514     10.0594
H      6.1408      8.4050      7.4483
H      8.7385      9.1196      7.8962
H      3.8981      9.1898     10.4257
C      6.3718     11.0362     10.4706
H      4.0832      7.8642     10.9305
H      8.1990      9.0942      9.5239
H      7.8061     10.4086      8.3033
C      8.0558      9.3176      8.5925
18

C      6.3490      9.7850     10.8249
C      5.7967      8.6040      9.7083
H      7.1065     11.0165      9.7777
H      7.3948      9.5882     10.7393
H      6.1894      9.6627     11.9910
H      3.8076      7.6449      9.2309
H      5.4233     11.1718      9.7258
H      6.4108     11.7317     11.2951
C      6.4914      8.6209      8.4873
C      4.3961      8.4050     10.0127
H      6.3872      8.1815      7.4278
H      8.9994      8.7826      8.1991
H      3.8899      9.6889     10.1624
C      6.2444     11.2002     10.3737
H      4.2388      8.1199     11.0670
H      8.5411      9.4011      9.5382
H      7.7076     10.3183      8.3322
C      8.0301      9.2948      8.5298
18

C      6.3624      9.6707     10.9034
C      5.7526      8.8084      9.7411
H      7.2164     11.4207      9.8307
H      7.3408      9.5248     10.7530
H      6.4519      9.8019     11.9834
H      4.0496      7.7876      9.0590
H      5.3668     10.9978      9.6734
H      6.0784     12.0653     10.9492
C      6.5521      8.6198      8.6775
C      4.3654      8.4768      9.9187
H      6.2291      8.3896      7.7219
H      8.4737      8.7573      7.6512
H      3.8450      9.4977     10.0119
C      6.2680     11.1355     10.4329
H      4.0598      7.8378     10.8074
H      8.1042      9.2914      9.4473
H      7.7877     10.5814      8.2380
C      7.9005      9.3651      8.4680
18

C      6.2790      9.6648     10.8977
C      5.7207      8.8087      9.8100
H      7.1889     11.2326      9.8339
H      7.2579      9.4415     10.8125
H      6.0838      9.5945     11.9099
H      3.9825      7.8182      8.9443
H      5.6233     11.0327      9.4749
H      5.8160     11.8963     10.9907
C      6.5267      8.7066      8.7974
C      4.3466      8.4482      9.9229
H      6.1171      8.2427      7.7817
H      8.8014      8.5416      7.9588
H      3.7765      9.4564     10.1515
C      6.3142     11.1632     10.3471
H      4.1647      7.6441     10.6342
H      8.6072      9.6774      9.5329
H      7.8319     10.3554      8.4272
C      7.9632      9.4240      8.5721
18

C      5.9795      9.8289     10.7871
C      5.7256      8.9069      9.7260
H      7.2107     11.1575      9.4521
H      7.1148      9.2147     11.2767
H      5.4433     10.3061     11.6976
H      4.3745      7.4834      9.0766
H      5.5416     11.6292      9.5042
H      6.6165     11.7982     10.8488
C      6.5510      8.7827      8.6215
C      4.3862      8.2403      9.9066
H      5.9501      8.3810      7.7764
H      8.5104      8.4108      8.0780
H      3.4070      9.1353     10.0339
C      6.3869     11.1589     10.2164
H      3.8449      7.3879     10.7737
H      8.1578      8.8932      9.9093
H      7.8005     10.3111      8.3597
C      7.9423      9.1883      8.6856
18

C      6.0453      9.7901     10.6821
C      5.7098      8.7767      9.6548
H      7.3183     11.0645      9.5747
H      7.0185      9.5670     11.2389
H      5.3077      9.8048     11.4956
H      4.0155      7.4924      8.9159
H      5.5603     11.4058      9.4058
H      6.1318     11.6530     10.8951
C      6.6616      8.6791      8.5701
C      4.4620      8.1701      9.9484
H      5.9492      8.8427      7.7360
H      8.5890      8.8623      8.0291
H      3.9431      9.0569      9.8500
C      6.2927     11.1243     10.0857
H      4.1026      7.3889     10.7939
H      8.0762      9.1316      9.9320
H      7.9075     10.4039      9.1087
C      7.9349      9.1334      8.7362
18

C      6.0758      9.7989     10.5435
C      5.8431      8.6485      9.6450
H      7.0064     10.8133      9.5001
H      7.0844      9.9550     10.9493
H      5.6430      9.5479     11.3098
H      3.9468      7.5536      9.0682
H      5.3461     11.3666      9.5848
H      6.4813     11.7211     10.8386
C      6.6965      8.5524      8.5506
C      4.3628      8.1161      9.9062
H      6.0999      9.3862      8.1443
H      8.5359      9.5295      8.1901
H      3.6179      8.9441     10.1996
C      6.1707     11.1075     10.0030
H      4.3361      7.4862     10.9632
H      8.7412      8.4858      9.6271
H      7.5836     10.3906      8.9919
C      7.8764      9.3304      8.9869
18

C      6.1223      9.6894     10.5763
C      5.6654      8.5736      9.7712
H      7.0354     11.6085      9.2128
H      7.2536      9.2720     11.0911
H      5.4303      9.5772     11.4536
H      4.0459      7.1610      8.9635
H      5.4466     11.5933      9.1385
H      6.5181     12.0153     10.8236
C      6.6782      8.6187      8.5106
C      4.2539      7.9318      9.8112
H      6.3676      9.2692      7.6459
H      8.5299      9.4876      7.7204
H      3.5626      8.7077      9.9332
C      6.2070     11.2432     10.0651
H      4.2690      7.4376     10.6418
H      8.1638      8.7898      9.6744
H      7.9131     10.2691      9.0758
C      7.8848      9.3139      8.8232
18

C      6.0828      9.6792     10.6179
C      5.7233      8.5904      9.7633
H      7.2973     11.4329      9.4056
H      5.9176      9.5142     11.7756
H      3.7688      7.4260      9.0181
H      5.4208     11.1921      9.2549
H      6.3329     12.2351     10.1706
C      6.6448      8.5922      8.6033
C      4.4144      7.9188      9.8087
H      6.1712      8.8606      7.4689
H      8.6928      9.0067      7.7796
H      3.6367      8.6733      9.9191
C      6.3111     11.1420      9.9890
H      4.1114      7.2518     10.6345
H      8.4325      9.2166      9.6964
H      6.9826      7.6909      8.0131
H      7.6126     10.5136      8.5517
C      8.0185      9.4308      8.7287
18

C      6.1811      9.6630     10.5349
C      5.7976      8.5148      9.7428
H      7.3153     11.0263      9.5072
H      5.3961      9.7523     11.4495
H      3.7840      7.7899      8.8364
H      5.6816     11.2886      9.0517
H      6.0803     12.0237     10.7058
C      6.6143      8.6401      8.5839
C      4.4676      7.7555      9.8387
H      6.0023      8.9820      7.7574
H      8.5396      8.8293      7.8686
H      3.6565      8.4183     10.2117
C      6.3540     11.2058      9.9785
H      4.2388      7.1324     10.6403
H      8.5465      9.2313      9.7634
H      6.6217      7.7136      7.9664
H      8.0363     10.4944      8.4110
C      7.9341      9.4465      8.7391
18

C      6.1978      9.8449     10.5585
C      5.8493      8.5330      9.8677
H      7.5753     11.3691      9.8741
H      5.6563      9.9630     11.5906
H      4.1766      7.2061      9.1758
H      5.4779     11.5866      9.6248
H      6.5625     11.9068     10.9450
C      6.5259      8.5324      8.4476
C      4.4803      7.9489      9.9135
H      5.8641      8.8107      7.6580
H      8.6915      9.1050      8.2879
H      4.0776      8.6309     10.5561
C      6.4910     11.1892     10.0077
H      4.7505      6.8910     10.7374
H      8.3275      9.3440      9.6533
H      7.1074      7.5282      8.3734
H      7.3225     10.2657      8.2253
C      7.7596      9.5035      8.6955
18

C      6.3941      9.8817     10.9524
C      6.1017      8.6261     10.1119
H      7.6628     11.0217      9.9475
H      6.9435      9.3615     11.6343
H      5.5854     10.5047     11.5982
H      6.0201     11.4255      9.4549
H      6.6562     11.6519     11.1584
C      6.4922      8.5391      8.5493
C      4.6222      8.5081     10.0626
H      5.6054      8.6232      7.8782
H      7.0454      9.3523      6.8038
H      4.5182      9.5110      9.2436
C      6.6632     11.1454     10.1719
H      4.2144      8.4564     11.1013
H      8.4718      9.0953      8.2635
H      6.8774      7.3341      8.4508
H      7.6339     10.3469      8.4737
C      7.5869      9.1954      7.9004
18

C      6.3598      9.7832     10.8386
C      6.1212      8.5448     10.0860
H      7.5470     11.3319      9.6327
H      7.0185      9.3489     11.6345
H      5.4733     10.0246     11.4434
H      6.0384     11.4052      9.3708
H      6.8112     11.9881     11.0089
C      6.4935      8.4183      8.5973
C      4.5943      8.4502     10.0409
H      5.7493      8.6507      7.7644
H      6.9076      9.3839      6.8644
H      4.4906      9.5059      9.4007
C      6.6791     11.0992     10.1470
H      4.1853      8.4104     10.9977
H      8.5729      8.6435      7.9131
H      6.8364      7.3409      8.6573
H      7.8860     10.2668      8.2025
C      7.6022      9.1558      7.9047
18

C      6.3946      9.7004     10.8259
C      6.2632      8.5685     10.0177
H      7.1988     11.3944      9.2963
H      6.8442      9.9269     11.8295
H      5.4360      9.9320     11.2353
H      5.8039     11.1465      9.2991
H      6.7282     11.8233     10.7706
C      6.6578      8.4011      8.6226
C      4.5888      8.4305      9.9998
H      5.8467      8.2259      7.9207
H      6.9119      9.0816      7.1126
H      4.3819      9.4100      9.3682
C      6.6965     11.0477     10.1665
H      3.8661      8.3561     10.9105
H      8.4643      8.6838      7.7031
H      6.9816      7.4817      8.5371
H      7.9110     10.1762      8.3150
C      7.6670      9.1795      7.9670
