19

C     10.1668     12.3079     11.2389
C      9.6027     12.8243     13.3513
H     10.3411     12.0936     13.6330
H     11.5808     11.5612     10.1506
C     10.6792     11.2446     10.5095
H     10.8075     14.3027     10.3345
O     10.1616     13.3382     10.1422
H     10.5378     10.6986     12.4102
C      9.7165     14.0105     14.0470
H     11.4328      9.6277     11.2696
H      8.8553     11.0985     12.5278
H     10.7686     12.6116     11.8872
H     10.3293     14.0963     14.9309
H      9.7553      9.6414     11.5970
H      9.9817     10.8535      9.5763
C     10.6523     10.2150     11.5423
H      9.3605     14.6119     13.2230
C      8.7830     12.1564     12.2183
H      7.7675     12.4202     11.7331
19

C     10.2310     12.3792     11.2356
C      9.6394     12.7822     13.3464
H     10.2501     11.9734     13.3875
H     11.7674     11.6456     10.1336
C     10.7823     11.3335     10.4688
H     10.5191     14.4085     10.2650
O     10.1039     13.2989     10.1802
H     10.5594     10.7959     12.5810
C      9.7471     13.9074     14.1523
H     11.6531     10.0599     11.8204
H      8.3658     11.2930     12.1444
H     11.0315     12.6342     11.8310
H     10.2683     13.8615     15.1591
H      9.9263      9.5388     11.5043
H     10.1770     11.2080      9.6319
C     10.6776     10.3174     11.5909
H      8.7644     14.6055     14.2656
C      8.8978     12.3484     12.1662
H      7.9109     12.7660     11.7125
19

C     10.2303     12.5224     11.1710
C      9.7681     12.8407     13.2646
H     10.3754     12.1790     13.6820
H     11.8293     11.7539     10.2558
C     10.7682     11.3320     10.4880
H     10.7301     14.1832     10.2837
O     10.0483     13.3618     10.1878
H     10.5239     10.5700     12.5121
C      9.6490     13.8331     14.0756
H     11.7553      9.9589     11.6188
H      8.7493     11.3718     12.4130
H     11.0830     12.5723     11.9053
H      9.9836     13.9887     15.2674
H      9.9581      9.4108     11.5336
H      9.9936     11.2392      9.6962
C     10.7718     10.1711     11.5490
H      9.0137     14.6357     14.0783
C      9.0487     12.3642     12.0870
H      7.9400     12.8783     12.1265
19

C     10.2969     12.4494     11.1518
C      9.7296     12.7805     13.3053
H     10.5251     11.9089     13.3655
H     11.5928     11.5710     10.1187
C     10.7204     11.2730     10.5336
H     10.6728     14.0915     10.4872
O      9.9704     13.4379     10.1793
H     11.0256     10.5778     12.4665
C      9.6786     13.7451     14.1094
H     11.9669      9.8275     11.5605
H      9.0264     11.3056     11.9970
H     11.2730     12.5698     11.7673
H      9.9907     14.1177     14.7904
H      9.9023      9.8045     11.3692
H     10.0067     11.2945      9.7014
C     10.8557     10.2571     11.5465
H      8.6291     14.5382     14.0200
C      9.0941     12.2833     12.1488
H      8.1214     12.4512     11.8584
19

C     10.2877     12.4937     11.1593
C      9.6728     12.5059     13.4656
H     10.6795     11.7670     13.6766
H     11.5319     11.3102      9.8416
C     10.6381     11.2194     10.3713
H     10.2959     14.4105     10.3825
O      9.8681     13.5510     10.1902
H     10.7222     10.9354     12.2772
C      9.6493     13.7021     14.2048
H     11.7344      9.6030     11.4971
H      8.7650     11.1837     12.2012
H     11.1010     13.0897     11.6595
H     10.3630     13.5461     14.9293
H     10.2690      9.4775     11.7134
H      9.7475     10.6102      9.9915
C     10.9586     10.2928     11.5261
H      8.8619     14.5859     13.5076
C      8.9712     12.1162     12.0891
H      8.3116     12.8112     11.7337
19

C     10.0822     12.5486     11.0919
C      9.5587     12.4011     13.5524
H     10.6521     11.8589     13.9232
H     11.3487     11.2495      9.6277
C     10.5654     11.1534     10.3823
H     10.1216     14.6027     10.1842
O      9.7796     13.5429     10.2347
H     10.7935     10.8736     12.5312
C      9.6404     13.5339     14.1319
H     12.0443     10.1676     11.8264
H      8.3006     11.1543     12.2507
H     11.0124     12.7171     11.8243
H     10.2115     12.9074     15.2300
H     10.6647      9.1760     11.6829
H      9.5914     10.9489      9.9467
C     11.0024     10.2203     11.5350
H      9.4328     14.5374     14.1122
C      9.0700     12.1140     12.1119
H      8.0748     12.8548     12.1895
19

C     10.0398     12.4258     11.0594
C      9.4217     12.3468     13.5640
H     10.6097     12.0120     13.6847
H     11.5879     11.2071     10.0091
C     10.5066     11.1915     10.4724
H     10.6144     14.1797     10.2883
O      9.7797     13.5945     10.2096
H     10.2562     10.7090     12.4902
C      9.6733     13.4041     14.2101
H     11.9173      9.7768     11.5935
H      8.3243     11.1299     12.2505
H     10.6868     13.0177     11.6949
H     10.0751     13.2219     15.2310
H     10.3788      9.2761     11.7157
H      9.8050     10.6422      9.6914
C     10.8953     10.2580     11.6379
H      9.5711     14.5533     13.8735
C      8.9020     12.0503     12.3232
H      8.1158     12.9238     11.9976
19

C     10.0687     12.4369     11.2341
C      9.3727     12.3691     13.4597
H     10.1557     11.5616     13.5443
H     11.5657     11.3413      9.8765
C     10.5039     11.2315     10.4123
H     10.4032     14.2763     10.1622
O      9.6880     13.5010     10.1908
H     10.7056     11.1114     12.4999
C      9.5449     13.5463     14.2702
H     11.8234     10.4153     11.7339
H      8.3278     11.3902     11.6550
H     11.0476     12.5494     11.7958
H     10.2763     13.3119     15.1084
H     10.3471      9.5873     11.1555
H      9.5509     10.9366      9.8842
C     10.7206     10.3581     11.7132
H      8.9672     14.5404     13.9592
C      8.7991     12.3197     11.9773
H      8.3010     13.3100     11.8284
19

C     10.0825     12.5509     11.2000
C      9.4078     12.5107     13.3925
H      9.9648     11.6159     13.6528
H     10.9772     11.9284      9.8234
C     10.4441     11.1561     10.4468
H      9.9575     14.2542     10.4953
O      9.7018     13.4018     10.3037
H     10.6913     11.1171     12.4679
C      9.5428     13.6592     14.2021
H     11.7053     10.5829     11.5017
H      8.1479     11.6713     11.6758
H     11.0865     12.5207     11.7051
H     10.3153     13.3627     14.9079
H     10.4257      9.2996     11.4782
H      9.5059     10.8704      9.7982
C     10.7283     10.3173     11.6701
H      9.2557     14.7255     13.9051
C      8.8255     12.4382     11.8860
H      8.1303     13.2551     11.8075
19

C     10.0369     12.3386     11.1760
C      9.4107     12.5981     13.3645
H     10.5449     12.2496     13.2439
H     11.0881     11.5969      9.6779
C     10.2722     11.2190     10.4737
H     10.1942     14.2733     10.2034
O      9.7586     13.4904     10.1813
H     10.1137     10.3579     12.4581
C      9.4790     13.6494     14.1310
H     11.8852     10.1520     11.8245
H      8.2885     11.5093     11.8446
H     10.8918     12.6353     11.8038
H     10.3750     13.9210     14.6938
H     10.5516      9.2946     11.6277
H      9.2419     10.7244     10.1791
C     10.8145     10.3292     11.5503
H      8.7914     14.5312     14.3346
C      8.8190     12.3399     12.1426
H      8.5510     13.4124     11.9974
19

C      9.9070     12.3868     11.1349
C      9.5522     12.6043     13.3992
H     10.5998     12.4419     13.3540
H     11.0267     11.4098      9.5031
C     10.3065     11.1347     10.4536
H     10.1403     14.1847     10.3920
O      9.6441     13.4230     10.2109
H     10.0517     10.2566     12.4623
C      9.4574     13.7144     14.1628
H     11.7895     10.2377     11.6261
H      8.3141     11.2957     12.2241
H     10.8151     12.4064     11.8398
H     10.3816     14.1061     14.6965
H     10.5629      9.2416     11.3519
H      9.5200     10.3384     10.1129
C     10.7312     10.2656     11.5442
H      8.6049     14.2485     14.1649
C      8.7898     12.3231     12.1448
H      8.2347     13.2146     12.2162
19

C      9.9141     12.3746     11.1233
C      9.6472     12.6890     13.3082
H     10.8670     12.0306     13.1928
H     10.9025     11.5226      9.7901
C     10.1903     11.1318     10.5302
H     10.2097     14.1610     10.3607
O      9.4870     13.4929     10.4032
H     10.1384     10.4311     12.4229
C      9.5246     13.7483     14.0623
H     11.6463     10.7167     11.7291
H      8.2202     11.3158     12.4081
H     10.8827     12.4484     11.7585
H     10.0937     14.0553     14.8460
H     10.6307      9.2214     11.2130
H      9.2283     11.1723     10.0247
C     10.7082     10.2376     11.5755
H      8.7486     14.5927     14.1697
C      8.8105     12.1328     12.2039
H      7.9404     12.8283     11.9388
19

C      9.8689     12.4666     11.2709
C      9.6172     12.5708     13.4183
H     10.6653     12.4437     13.1520
H     11.1757     11.4805      9.9312
C     10.2231     11.1285     10.5738
H      9.8726     14.2856     10.0676
O      9.3951     13.3980     10.4076
H      9.7241      9.9959     12.3566
C      9.5260     13.7047     14.0391
H     11.5825     10.7310     12.0411
H      8.4589     11.0695     12.1383
H     10.8287     12.5604     11.7741
H     10.0507     14.2655     14.8438
H     10.7754      9.1164     11.4453
H      9.4732     10.9511      9.7796
C     10.6481     10.1409     11.5876
H      8.8624     14.4578     13.6409
C      8.8306     12.1730     12.2415
H      8.1281     12.9530     12.1886
19

C      9.9396     12.3752     11.3703
C      9.6729     12.4724     13.6850
H     10.4370     11.9134     14.0028
H     11.0411     11.7216      9.8941
C     10.2822     11.2388     10.5230
H      9.7652     14.0032      9.9692
O      9.4124     13.1124     10.2657
H      9.7732     10.1994     12.4493
C      9.5505     13.8285     14.1686
H     11.3100     10.4833     12.3589
H      8.4320     11.0701     12.4919
H     10.6888     13.0699     11.8130
H     10.5212     14.2420     14.5912
H     11.1121      9.2516     11.4471
H      9.6295     10.5809      9.7653
C     10.5053     10.1458     11.6197
H      9.4342     14.4292     13.1421
C      8.8284     12.1992     12.3611
H      8.1810     12.9646     12.0448
19

C      9.8259     12.4197     11.2375
C      9.6444     12.5448     13.6569
H     10.3515     11.9097     14.1814
H     11.2463     11.5104     10.1605
C     10.4186     11.2564     10.5206
H      9.7935     13.9643      9.6577
O      9.4029     13.2706     10.2757
H      9.7369     10.4666     12.2419
C      9.6269     13.8622     14.0742
H     11.2665     10.4577     12.3656
H      8.2614     11.2353     12.2651
H     10.7582     13.2291     11.8370
H     10.3359     14.5471     14.6162
H     10.9898      9.2292     11.4255
H      9.7064     11.0420      9.6617
C     10.4757     10.1454     11.6344
H      9.1246     14.7183     13.7141
C      8.7858     12.0775     12.3697
H      8.1919     12.9214     12.1136
19

C     10.0016     12.4222     11.2308
C      9.7072     12.6251     13.6335
H     10.5453     12.0090     13.8410
H     11.4971     11.4883     10.8349
C     10.5218     11.2917     10.5249
H      9.9907     14.0141      9.9629
O      9.3291     13.2962     10.2080
H      9.4871     10.4498     12.0607
C      9.6241     13.8895     13.9704
H     10.9896     10.7483     12.5654
H      8.6885     11.0209     12.7894
H     10.3982     13.1090     12.0370
H     10.3769     14.0986     14.7774
H     11.0433      9.1710     11.4879
H     10.0255     10.9853      9.5025
C     10.5111     10.1834     11.6671
H      9.0574     14.4586     12.9717
C      8.8321     12.0616     12.3791
H      8.2769     12.9302     12.7630
19

C      9.9197     12.3464     11.3164
C      9.7288     12.5094     13.6032
H     10.5389     12.0673     13.5776
H     11.5632     11.2452     10.3391
C     10.5466     11.2159     10.5155
H      9.9690     14.1559      9.9934
O      9.3542     13.2951     10.2438
H      9.6056      9.8682     11.7599
C      9.4587     13.9498     13.9469
H     10.6955     10.8311     12.6421
H      8.7631     11.0939     12.7556
H     10.8630     12.9333     11.8812
H     10.4816     14.2361     14.5318
H     11.1311      9.3135     11.4284
H     10.2002     10.8087      9.6998
C     10.5350     10.1963     11.5918
H      9.3631     14.6008     12.8901
C      8.9234     12.0490     12.4770
H      7.9978     12.7233     12.4234
19

C      9.8213     12.2830     11.1813
C      9.6626     12.7822     13.5908
H     10.6807     12.2144     13.7886
H     10.9662     11.5180      9.6948
C     10.2306     11.1493     10.3340
H     10.3531     13.5199     10.0124
O      9.5148     13.3468     10.4447
H      9.7911      9.4310     11.3318
C      9.4120     13.9293     13.9728
H     10.4702     10.4366     12.5393
H      8.7992     10.9165     12.4693
H     10.8978     12.4950     11.6576
H     10.2938     14.2822     14.3918
H     11.4474      9.4898     10.9915
H      9.4154     10.9104      9.5482
C     10.5668     10.0746     11.3376
H      8.7364     14.7878     13.3814
C      9.0067     12.0332     12.3917
H      7.8859     12.2668     12.2373
19

C      9.8933     12.2162     11.2411
C      9.6262     12.7724     13.5477
H     10.6558     12.3345     13.7956
H     10.9267     11.5957      9.5604
C     10.1716     11.0927     10.4096
H     10.3103     13.6576     10.1859
O      9.5939     13.2751     10.5306
H      9.7229      9.2704     11.4605
C      9.4586     14.0011     14.0868
H     10.2373     10.5440     12.4004
H      8.3387     10.9529     12.4711
H     10.8710     11.9751     11.7607
H     10.2982     14.3327     14.3889
H     11.6967      9.6732     11.2688
H      9.3116     10.6385      9.5565
C     10.6070      9.8684     11.4210
H      8.9496     14.6045     13.2859
C      8.9866     11.9829     12.4770
H      7.9975     12.7379     12.4375
19

C      9.8995     11.9487     11.3305
C      9.8354     12.8138     13.5922
H     10.8059     12.3152     13.8494
H     10.9403     10.8115      9.6357
C     10.1352     10.7005     10.4309
H     10.1837     13.6283      9.9818
O      9.7316     13.2449     10.7411
H     10.5266      9.0122     11.3188
C      9.5305     14.0408     14.1384
H     10.6363     10.3258     12.5991
H      8.5961     10.9209     12.4511
H     10.9007     12.3097     11.8273
H     10.2134     14.6690     14.6136
H     11.8094     10.1505     11.6023
H      9.0468     10.2196      9.8652
C     10.7578     10.0548     11.4885
H      8.9081     14.7323     13.4366
C      8.7312     12.1141     12.5198
H      7.9223     12.6786     12.0750
19

C      9.8521     11.9640     11.4198
C      9.8847     12.8022     13.6385
H     10.8883     12.2112     13.9107
H     11.0806     11.0473      9.7795
C     10.0589     10.5910     10.4089
H      9.9961     13.2936      9.7353
O      9.8244     13.2109     10.8538
H     11.3352      8.9697     11.7290
C      9.5380     14.0314     14.0440
H     10.5114     10.6933     12.3484
H      8.2093     11.3582     12.8654
H     10.7712     12.1949     12.1251
H     10.1511     14.6304     14.7420
H     11.9517     10.5392     11.3900
H      9.0960     10.0988     10.2674
C     10.9425     10.0036     11.5944
H      8.7496     14.5425     13.3889
C      8.7779     12.2203     12.4525
H      7.7773     12.5560     12.2569
19

C      9.8315     11.8354     11.4257
C      9.7751     12.8306     13.5154
H     10.8764     12.6127     13.8551
H     10.8895     10.8300      9.5156
C     10.0513     10.6783     10.5359
H     10.3203     13.2194     10.0215
O      9.6876     13.1996     10.9384
H     10.6280      8.9312     11.4694
C      9.6123     14.1175     13.9621
H     10.5356     10.1285     12.4869
H      8.4179     11.2805     12.7220
H     10.8415     11.7832     11.8451
H     10.4392     14.6876     14.0996
H     11.9303     10.3745     11.4307
H      9.4749     10.3031      9.7252
C     10.8410      9.9607     11.6498
H      8.9334     14.7167     13.3701
C      8.6550     12.1969     12.6174
H      8.1660     13.2095     12.0183
19

C      9.7429     12.0133     11.5296
C      9.6371     12.9365     13.5032
H     10.4964     12.2584     13.3451
H     10.8718     11.5440     10.4054
C     10.0859     10.8015     10.6523
H     10.5446     13.2303     10.2271
O      9.6322     13.2152     10.8593
H     10.6941      8.8246     10.9860
C      9.7081     14.2029     13.8029
H     10.4645      9.6582     12.2960
H      8.0757     11.5189     12.9533
H     10.7697     12.2099     11.9403
H     10.7256     14.5181     14.0774
H     11.8496     10.0791     11.5734
H      9.3940     10.2070     10.0873
C     10.7043      9.7587     11.4579
H      8.7352     14.6935     13.5048
C      8.8223     12.1269     12.6810
H      8.1495     12.9067     11.9919
19

C      9.8635     12.0947     11.5737
C      9.6686     12.9481     13.6513
H     10.6101     12.6113     14.2460
H     10.8096     11.2097      9.7643
C     10.1091     10.9971     10.6838
H     10.4344     13.2302      9.8642
O      9.6254     13.2622     10.6818
H     11.1043      8.9799     10.5309
C      9.7628     14.3090     13.6741
H     10.3190      9.5284     12.2217
H      8.2720     11.3256     13.3030
H     10.8108     12.1591     12.1903
H     10.3983     14.6520     14.6050
H     11.7528     10.0399     11.6500
H      9.2360     10.8749     10.0254
C     10.6849      9.6255     11.2370
H      9.0069     15.1901     13.7344
C      8.7154     12.1199     12.6056
H      7.8168     12.3589     12.2609
19

C     10.0049     12.1539     11.4796
C      9.6146     13.0948     13.7603
H     10.3162     12.3413     14.3619
H     10.7077     11.3683      9.5061
C     10.1521     11.0014     10.6211
H     10.3376     13.1114     10.1444
O      9.6252     13.2184     10.6537
H     11.0435      9.0560     10.5945
C      9.8697     14.3595     13.6473
H     10.3029      9.1555     11.9322
H      8.7840     10.9950     12.9177
H     11.0270     12.3258     11.9833
H     10.1322     14.7515     14.7415
H     11.8040     10.2796     11.4092
H      9.2795     11.1836      9.9780
C     10.6836      9.7412     11.2031
H      9.2721     15.1468     13.1128
C      8.7719     12.2238     12.7164
H      7.7709     12.3793     12.1543
19

C     10.1495     12.1979     11.5470
C      9.6368     13.0712     13.5550
H     10.0011     12.4650     14.4186
H     10.7433     11.1719      9.6830
C     10.0505     10.9820     10.6348
H     10.4330     13.4644     10.0312
O      9.6020     13.2464     10.5870
H     11.0212      8.9418     10.7859
C      9.8920     14.3662     13.7503
H     10.0848      9.6693     12.1343
H      8.7592     11.1863     13.3097
H     11.0099     12.3562     12.2941
H     10.0660     14.6675     14.6645
H     11.6001     10.0018     11.8353
H      9.0507     10.9750     10.3435
C     10.6007      9.6908     11.2960
H      9.5791     15.2816     13.0991
C      8.9256     12.2283     12.6943
H      7.9879     12.6894     12.1915
19

C     10.0308     12.2391     11.5831
C      9.5704     13.0935     13.6511
H      9.9873     12.2741     14.1424
H     10.2808     11.1540      9.3676
C     10.1998     10.9818     10.6203
H     10.4411     13.8138     10.0345
O      9.6130     13.2480     10.6209
H     10.3764      8.6226     11.3970
C      9.9820     14.3560     13.7764
H      9.8470      9.6556     12.0560
H      9.1658     11.4885     13.2826
H     11.0925     12.3708     12.0921
H     10.1334     14.4298     14.8844
H     11.4322     10.0488     11.8888
H      9.2558     10.7278     10.1762
C     10.4791      9.6386     11.3632
H      9.5817     15.1688     13.2225
C      9.0371     12.3385     12.5391
H      8.0038     12.6335     12.2572
19

C     10.1600     12.1463     11.4699
C      9.5606     13.0827     13.7971
H     10.5381     12.6274     14.1554
H     10.9520     11.4882      9.8755
C     10.1838     10.9948     10.6400
H     10.4684     13.4155     10.3219
O      9.5740     13.3236     10.6938
H     10.4740      8.4546     11.2232
C     10.0006     14.3949     13.7128
H      9.5440     10.1544     11.9100
H      8.9155     11.0877     12.8722
H     11.3222     12.2685     11.9672
H     10.2913     14.8569     14.8046
H     11.1473     10.0096     12.1948
H      9.1602     10.7649     10.4000
C     10.4801      9.6845     11.4077
H      9.2494     15.3827     13.3033
C      8.9495     12.1812     12.5867
H      8.1774     12.7461     12.0779
19

C     10.1005     12.1524     11.5538
C      9.7678     13.0601     13.8080
H     10.6702     12.6338     14.5955
H     11.1121     11.1078     10.1001
C     10.1798     10.9867     10.5446
H     10.2609     13.3775      9.8665
O      9.6668     13.3157     10.7603
H     11.1220      9.2637     10.8569
C      9.8168     14.4101     13.7181
H      9.4731      9.3383     11.8173
H      8.5817     11.0819     13.0095
H     11.0264     12.2298     12.2347
H     10.6971     14.9082     14.2159
H     11.1715      9.9111     12.3609
H      9.3415     11.0390      9.6478
C     10.5005      9.9460     11.5613
H      8.9569     14.9081     12.9530
C      9.0829     12.0400     12.7206
H      8.2451     12.5143     12.3145
19

C     10.0131     12.1979     11.6214
C      9.9531     13.1110     13.8625
H     10.4451     13.0283     14.8700
H     11.2336     11.7514      9.9476
C     10.2392     11.1604     10.5974
H     10.3874     12.9815     10.0940
O      9.6835     13.2535     10.6736
H     11.0457      9.3362     10.8978
C      9.7406     14.3926     13.6856
H      9.9633      9.1283     12.1060
H      9.0964     11.5009     13.4981
H     11.1463     11.8044     11.9718
H     10.5264     14.8222     14.2179
H     11.0395     10.4247     12.2931
H      9.4110     10.5871     10.0336
C     10.5817      9.8903     11.5756
H      9.2933     14.8749     12.8452
C      9.2126     12.2102     12.8315
H      8.3322     12.7821     12.6008
19

C     10.0833     12.2348     11.6743
C      9.9667     13.1622     13.8601
H     10.6242     12.6480     14.7374
H     11.3645     11.6333     10.0903
C     10.2308     11.2531     10.7112
H     10.0635     12.5997     10.0339
O      9.6892     13.3293     10.6644
H     11.0837      9.0812     10.9553
C      9.8120     14.4988     13.8419
H      9.8355      9.5969     11.7039
H      8.9780     11.3766     13.6243
H     11.1188     12.3680     12.1859
H     10.6801     14.7837     14.2472
H     11.0507     10.3301     12.2318
H      9.2132     10.7772     10.2899
C     10.6178      9.8913     11.4053
H      9.0888     14.4758     12.7850
C      9.2111     12.2063     12.9427
H      8.2625     12.7233     12.5616
19

C     10.1432     12.3688     11.6667
C      9.7643     13.0886     13.8065
H     10.7853     12.7116     13.9425
H     11.0621     11.6767     10.2663
C     10.2700     11.1581     10.7656
H      9.8385     12.8541      9.6730
O      9.7424     13.3093     10.5810
H     11.0725      8.8721     11.2244
C      9.6356     14.4168     13.9455
H      9.7850      9.4900     11.9736
H      8.7443     11.3057     13.6638
H     11.1022     12.5800     12.3537
H     10.7892     15.1695     14.1402
H     11.3644     10.2604     12.2327
H      9.3423     10.9689      9.9978
C     10.7030      9.9528     11.4744
H      8.6422     14.3838     13.2374
C      9.1434     12.2333     12.8646
H      8.3454     12.5128     12.4041
19

C     10.2097     12.3650     11.5965
C      9.8988     13.0969     13.8863
H     10.7418     12.5604     14.0622
H     10.9667     11.5860     10.0349
C     10.3319     11.2112     10.7273
H      9.8702     13.1954      9.6420
O      9.6480     13.3543     10.6114
H     10.9285      8.9220     10.9991
C      9.6025     14.3574     13.8251
H     10.1071      9.5328     12.2589
H      9.0866     11.1635     13.2259
H     11.3643     12.3510     11.9751
H     10.3649     15.2570     13.6104
H     11.7496      9.9086     11.8590
H      9.2964     10.8243     10.0230
C     10.8756      9.8913     11.4527
H      8.4503     14.5287     13.4807
C      9.1473     12.2921     12.7691
H      8.0214     12.4017     12.5258
19

C     10.1038     12.3612     11.5757
C      9.8737     13.0668     13.9005
H     10.9335     12.5992     14.2207
H     10.7257     11.5857      9.7109
C     10.2341     11.1431     10.5975
H      9.9723     12.7870      9.8389
O      9.7156     13.3233     10.6532
H     11.3852      9.1154     11.0191
C      9.5322     14.2957     13.8912
H     10.1825     10.0941     12.0648
H      9.0999     11.2181     13.1232
H     11.0801     12.3921     11.8521
H     10.2738     15.1222     13.8521
H     12.1802     10.1433     11.8234
H      9.3951     10.6099      9.9128
C     10.9986      9.8772     11.4583
H      8.5433     14.5216     13.2040
C      9.1531     12.2677     12.7271
H      8.0519     12.6914     12.5773
19

C     10.0536     12.3021     11.5446
C      9.8134     12.9397     14.0304
H     11.0708     12.9589     14.1481
H     11.1990     11.3647      9.6600
C     10.3474     11.0244     10.4999
H     10.2695     12.8223      9.9673
O      9.7264     13.3575     10.6968
H     11.1030      9.0171     11.1054
C      9.4188     14.2819     13.8416
H     10.2986      9.6629     12.1514
H      8.8228     11.2355     12.9738
H     10.9836     12.6519     12.1929
H     10.1920     15.0043     14.1381
H     11.5610     10.8722     11.7891
H      9.5740     10.3433      9.9900
C     10.9194     10.1479     11.4849
H      8.8878     14.1619     12.8966
C      9.1725     12.2885     12.7938
H      8.3337     12.6722     12.2860
19

C     10.1166     12.2521     11.6654
C      9.7780     12.9577     14.0920
H     10.5248     12.6091     14.8391
H     11.1811     11.8946      9.8771
C     10.4766     11.2036     10.5401
H     10.6491     13.5907     10.1255
O      9.7643     13.4069     10.7069
H     11.7930      9.4403     11.5254
C      9.3978     14.1846     13.7772
H      9.8003     10.1684     12.0066
H      8.8930     11.1675     13.0314
H     11.1813     12.4184     12.2714
H     10.0486     15.0560     14.0870
H     11.3208     10.7132     12.1777
H      9.7171     10.8975      9.8659
C     10.8231     10.1989     11.5647
H      8.7087     14.6891     13.1530
C      9.2758     12.1975     12.8846
H      8.3716     12.7912     13.0240
19

C     10.0880     12.2892     11.5976
C      9.7604     13.1106     13.9804
H     10.7339     13.0638     14.3754
H     10.8547     11.6902      9.5422
C     10.4231     11.2036     10.5364
H     10.7217     13.4450     10.0603
O      9.7967     13.3721     10.6170
H     11.3870      9.2984     11.2254
C      9.4742     14.3681     13.8032
H      9.9310     10.0109     12.1010
H      9.3315     11.3009     13.1706
H     11.3305     12.6334     12.1064
H     10.1432     15.1243     14.2832
H     11.2687     10.6634     12.3049
H      9.5668     10.8662      9.8669
C     10.8173     10.1357     11.5252
H      8.8024     14.6218     13.0318
C      9.3380     12.3455     12.8455
H      8.2310     12.7540     12.8270
19

C     10.1194     12.2931     11.4594
C      9.9192     13.0609     13.9918
H     10.9294     12.9630     14.2597
H     10.9612     11.8929      9.8317
C     10.4008     11.2739     10.5191
H     10.4665     13.1172      9.9553
O      9.7374     13.2940     10.5425
H     11.4320      9.4803     11.5235
C      9.5557     14.3479     13.7729
H      9.9027      9.5403     11.5326
H      9.2190     11.1705     13.1694
H     11.1573     12.4689     11.8911
H      9.9489     15.3187     13.8647
H     11.4245     10.7729     12.1583
H      9.5885     10.8418     10.0265
C     10.7711     10.2060     11.4685
H      8.7805     14.5084     13.1222
C      9.2774     12.2827     12.7983
H      8.1859     12.9170     12.6262
19

C     10.0435     12.2693     11.4459
C      9.8839     13.0778     14.0393
H     10.9881     13.0384     14.5289
H     11.0829     11.6668      9.5657
C     10.4025     11.2716     10.3780
H     10.0242     12.7615      9.7730
O      9.6699     13.2700     10.5704
H     11.6881      9.4497     11.5579
C      9.6023     14.2564     13.7672
H     10.0258      9.6468     11.6299
H      8.6646     11.4794     13.0933
H     11.1923     12.1603     12.1143
H      9.9580     15.3005     13.7789
H     10.9896     10.7315     12.2388
H      9.3815     11.0325      9.7403
C     10.7371     10.2358     11.3808
H      8.8203     14.2557     13.0081
C      9.2946     12.2247     12.8283
H      8.3943     12.7973     12.3882
19

C      9.9952     12.3487     11.5357
C      9.9096     12.9928     13.9955
H     10.6524     12.9639     14.6270
H     11.0499     11.4768      9.4591
C     10.3250     11.3410     10.3847
H      9.5952     12.5126      9.8121
O      9.7282     13.4922     10.5345
H     11.6936      9.4131     11.3332
C      9.6135     14.2375     13.7714
H      9.9307      9.5021     11.5884
H      8.8718     11.3641     13.6529
H     10.9909     12.3501     12.1452
H     10.0137     15.1907     13.9521
H     10.6055     10.5634     12.4867
H      9.3480     10.8516      9.9934
C     10.7089     10.0380     11.3185
H      8.9128     14.3567     12.9545
C      9.1484     12.1282     12.8425
H      8.3527     12.9739     12.6382
19

C     10.0581     12.4430     11.6106
C      9.9355     12.7214     13.9515
H     10.5217     12.3976     14.7252
H     11.0944     11.7754     10.2146
C     10.2844     11.1226     10.6972
H      8.8389     13.5378      9.8826
O      9.9441     13.5681     10.5179
H     11.7787      9.9446     11.1551
C      9.8148     14.1732     13.7479
H     10.2043      9.1637     11.1818
H      8.7561     11.1575     13.2564
H     11.0286     12.4704     12.0978
H     10.1452     14.5662     14.7609
H     10.8708     10.5936     12.5472
H      9.6919     10.8869      9.8225
C     10.6143     10.0601     11.4434
H      9.5626     14.6437     12.7427
C      9.1432     12.2419     12.9012
H      7.9965     12.5582     12.9404
19

C     10.0829     12.4799     11.5663
C      9.8481     12.8070     13.9289
H     10.5136     12.5904     14.6633
H     11.2992     11.5549     10.0317
C     10.2191     11.3301     10.5515
H      9.2476     13.1409     10.0208
O      9.8973     13.5742     10.3987
H     11.8666      9.8001     11.1455
C      9.8994     14.0944     13.8211
H     10.0287      9.7439     11.6805
H      9.0751     11.0368     12.9805
H     11.0036     12.4972     12.2616
H     10.5102     14.5152     14.6058
H     10.9904     10.7975     12.4777
H      9.5605     10.8470      9.7116
C     10.8170     10.2669     11.4328
H      9.6006     14.3073     12.9090
C      9.1476     12.1664     12.8164
H      8.0786     12.8348     12.5372
19

C     10.0373     12.3928     11.5462
C      9.9299     12.8382     13.9585
H     10.3480     12.5475     14.8953
H     11.2877     11.5663     10.0454
C     10.2802     11.3792     10.5620
H      9.2755     12.9394     10.1024
O      9.9645     13.4441     10.3433
H     11.6941      9.7892     11.3190
C      9.8983     14.1632     13.8505
H      9.9554      9.6639     11.5545
H      9.0728     11.1450     12.8001
H     10.9770     12.7784     12.1353
H     10.3884     14.3770     14.9531
H     11.5921     10.6881     12.4262
H      9.8135     10.9433      9.7875
C     10.7802     10.2821     11.4045
H      9.5137     14.4406     13.0083
C      9.1565     12.1325     12.7481
H      8.0028     12.5112     12.3850
19

C     10.0073     12.2778     11.4645
C     10.0747     12.9073     13.9684
H     10.1320     12.5238     14.9510
H     10.9280     11.5686      9.7049
C     10.4711     11.1385     10.5579
H      9.1303     12.8685      9.6934
O     10.1693     13.1848     10.3623
H     11.1627      9.4514     10.8267
C      9.9210     14.2730     13.8320
H      9.8374      9.7634     11.5431
H      9.0430     11.3714     13.2165
H     11.0790     12.1445     12.0765
H      9.8716     15.2689     14.5213
H     11.1698     10.8386     12.3244
H      9.4787     11.0564     10.2309
C     10.7522     10.0982     11.5271
H      9.4899     14.6831     13.0874
C      9.2371     12.2579     12.7317
H      8.1395     12.7423     12.7885
