   96
 8.60913085937500e+00  8.60913090000000e+00  8.60913090000000e+00
 O  2.05293285197750e+00  6.91312729665194e+00  6.73256797856554e+00     4.41835231241477e-01  4.13406558274896e-01 -1.18666691749436e-01 
 H  4.00326313564879e-01  6.89991476696673e+00  1.45377599357363e+00    -5.12072206926707e+00 -4.42374386785915e+00  1.44186856520765e+00 
 H  1.87541494538155e+00  5.45222695984701e+00  7.08901194112815e+00     7.85619453886609e-01 -2.97767965471426e-02  3.76699115829714e+00 
 O  8.47164907850558e+00  8.38671698434288e+00  5.63391618760257e+00     8.33354223205356e-02  6.83274742432720e-01  5.04427413549523e-01 
 H  1.77632978156603e+00  3.25257622296631e+00  7.07882337072127e+00    -1.22417881413047e+00  3.18091521402623e+00 -1.30811338286399e+00 
 H  7.19865281430882e+00  5.00538456580703e+00  4.99735053844119e+00     2.65794208687752e-01 -2.46011903347459e+00 -3.44368654999628e-01 
 O  1.46937438907449e+00  7.98931357947695e+00  2.85813065462974e+00    -1.09780099933559e-01 -3.87965951639362e-01 -2.63764026248843e-01 
 H  7.78212618289702e-01  1.87065877475485e+00  7.21911315456358e+00     3.86923167260699e+00 -1.04908541478647e+00 -6.59083578470454e-01 
 H  3.76729412427604e+00  6.28462194603393e+00  6.85488485993794e+00     1.13770160789288e+00 -9.63648784391224e-01  1.32113467784292e+00 
 O  1.22243318586255e+00  2.32622070279769e+00  3.89876773523738e+00     7.51526549347727e-02 -2.22381547165661e-01 -1.94891484615213e+00 
 H  3.79722536564393e+00  4.64685158597862e+00  7.70373753765444e+00     2.09652072932267e+00  1.33594718582884e+00 -2.69440859669657e-01 
 H  3.37355745330720e+00  8.65421918722609e+00  7.34582120109924e+00     3.88531255354803e+00  1.41597793157045e-01  3.95804039210263e-01 
 O  2.10589415233013e+00  4.39427003451509e+00  7.52518378615984e+00    -8.62743996751730e-02 -5.41787274889297e-01  2.20182922336909e-01 
 H  4.22898785741586e+00  3.61964716212483e+00  4.14690248927584e+00    -5.33760905971429e-01  2.55734577785775e-01  1.51742356157266e+00 
 H  1.45755240642140e+00  6.01042015811428e+00  8.38521133774674e-01     1.91557574965979e+00 -1.86147360988562e+00  3.21830897617090e+00 
 O  8.00129309574131e+00  1.43913795977603e+00  7.56851810039740e+00    -5.12042424134662e-02  7.25330553978156e-02  2.39359690551243e-01 
 H  2.43558273539742e-01  4.41255649317656e+00  3.69201827705560e-01    -4.42919377931700e+00  1.35796045443612e+00  6.76947858807631e-02 
 H  5.91608021753586e+00  3.41957297575434e+00  5.05255097013912e+00    -1.62486500687240e+00 -2.30621993660046e+00 -9.43407942388672e-01 
 O  6.65320889175147e-01  5.20344149757524e+00  3.54013861793496e+00    -6.26854686840570e-01 -1.07566930161795e+00 -6.05148779462929e-03 
 H  4.78026281265608e+00  5.54869312809817e-01  6.36867252705332e+00    -8.95917585351565e-01  4.16240664925177e+00 -3.93277034605310e-01 
 H  3.70898845289617e+00  7.11512169999418e+00  1.85397263384335e+00    -9.36247706102395e-02  4.79732057540081e+00  1.16214210014887e+00 
 O  3.41844527238562e+00  6.16759618414074e+00  2.09065183772474e+00    -8.60618514639572e-02 -8.56831484631327e-01 -4.26888617571963e-04 
 H  8.05201087222464e-02  3.04788733177465e+00  6.73517493414524e+00     5.84294145226218e-01  4.21717368879388e-02  6.45843636178750e-01 
 H  6.09017954772704e+00  6.31748625322387e+00  4.39714427729912e+00     1.47050161910146e+00 -9.00852013464147e-01 -5.35142699143947e-01 
 O  6.01594376561918e+00  2.36140983700857e+00  1.37214427925544e+00    -1.87042191447260e-01 -9.63910915942721e-01 -7.41022783642888e-02 
 H  5.69294926033125e+00  3.81604935937964e+00  3.61180165529244e+00     3.19175744528286e+00 -8.66878799684531e-01 -6.69836945711017e-01 
 H  1.67753696445054e+00  8.59135479282551e+00  3.68979675231979e+00     2.43139186432589e+00  1.56860623298590e+00 -4.40101573551614e-01 
 O  3.38647621887005e+00  2.82357573393452e+00  5.25913877267312e+00    -5.66863272912959e-01 -1.25100170352993e+00 -7.82242428471518e-01 
 H  7.90678768246614e+00  7.47304181115781e+00  8.27108475138293e+00     1.18528556689450e-01  8.19908482285951e-01  2.04625117935359e+00 
 H  7.42395153533581e+00  5.95354810543599e+00  6.34271268865202e+00     3.28874193111238e+00 -1.61854072379401e+00  1.70986138333243e+00 
 O  3.31913217051017e+00  2.19921578714486e+00  2.26751738444943e+00    -3.99516234960425e-02  1.22431920696473e-01 -6.15770852564219e-01 
 H  8.32495369375991e+00  2.95711987823299e+00  5.27699080585404e+00     3.25049785061511e+00 -1.75831364559971e+00 -1.52636242250521e+00 
 H  7.01130232994600e+00  4.10613882169514e+00  7.86658970766234e-01    -3.09420610709600e+00  1.31932001636071e+00 -5.96279050710514e-01 
 O  8.67705733544194e+00  1.25548926663044e+00  1.05100636213236e+00     2.54180956252295e-01 -1.11573504681119e-01 -1.10727867986875e-01 
 H  7.95727596049564e+00  9.00808627313270e+00  5.04457324571960e+00    -1.73755450377196e+00 -9.04144614644870e-01  3.84398534422065e-01 
 H  5.35087707962164e+00  7.11123156536479e+00  7.45323595188937e+00    -9.69934470085685e-01  1.43613041257199e+00  8.21763341552677e-01 
 O  7.27636890935453e+00  8.22811759973438e+00  2.52760068793899e+00    -4.01022664770828e-01 -1.61469255076154e-01 -2.86343003342205e-01 
 H  1.92716785632606e+00  4.08039286345335e+00  4.11832529269546e-01     1.38667331867864e+00  1.54843314843771e+00  1.36129551227712e+00 
 H  8.49532178023996e+00  6.96291792148660e-02  6.66236909853514e+00    -1.28676259253400e+00 -2.48419039992291e+00 -4.45609275554998e+00 
 O  5.74316745503303e+00  3.11196651145674e+00  5.85326483276363e+00    -5.13930145765513e-01  3.54739153861914e-01 -2.76747370439069e-01 
 H  5.43159006186039e+00  3.71498047793548e+00  7.71385864085533e+00     1.22029883642821e+00  9.56402511732103e-01  1.89935069421155e+00 
 H  7.33546345450643e+00  1.87276845667892e+00  6.92703729349498e+00    -4.41787027544494e+00 -2.21777833642919e+00 -1.41776335509469e+00 
 O  1.86984677144328e+00  2.27663081718384e+00  6.96596018109391e+00    -2.45437616246849e-01  4.55755650164895e-01 -1.13239461089215e-01 
 H  2.63252862002785e+00  3.44834110463815e+00  5.31851270600509e+00    -3.74658215620892e+00 -1.74631626050634e-01  9.79895526434556e-01 
 H  5.54217698485766e+00  1.11364687008548e+00  4.79451160053645e+00    -9.00574935410056e-01 -2.16123863472613e+00  9.20777373367606e-01 
 O  7.15476282944310e+00  6.82632067425754e+00  8.11198731580976e+00    -1.55840642280609e-01  1.73639891216977e-01  1.47626478306734e-01 
 H  3.97917744789675e+00  5.75579376899696e+00  1.42553210767325e+00     6.21942457118737e+00  5.67409609715128e-01  3.94551907287999e+00 
 H  8.02274760669176e+00  1.74352456712163e+00  3.58530844786410e-01     4.27738081989372e-03  2.22079588289527e+00  1.19051162142601e+00 
 O  9.01541429608435e-01  6.78564089529895e+00  5.87913923493174e-01    -2.48973472384957e-01  7.78733427617098e-01 -2.15206076880942e-01 
 H  4.88770799683299e+00  2.55510303710370e+00  5.76642092457531e+00     3.74847987751552e+00  1.27705093955369e+00  2.61741881437888e+00 
 H  6.79665857969581e+00  2.54027195728128e+00  7.24743837502347e-01    -8.43525036290840e-01  4.27690942488676e+00 -2.76402523057800e-01 
 O  5.82842040564646e+00  4.55420725801508e-01  6.58983034093116e+00     5.11180764238434e-03 -2.90857217687095e-01 -7.26172174605626e-01 
 H  4.05221707711681e+00 -3.45059251199747e-01  1.04342510521881e+00     3.23249211362587e-01 -2.55515753338746e+00  1.00103421379768e+00 
 H  2.38512543120639e+00  2.46477759467993e+00  2.09990218306703e+00     2.69419344317682e+00 -7.05463724197546e-01  2.71857943687312e+00 
 O  3.12029561291490e+00  6.49353714166224e+00  4.09511134600540e+00    -1.33842294751753e-01  1.41252171656855e-01  4.89939649879725e-02 
 H  1.72428651718612e+00  4.21946888094236e+00  2.03632381204751e+00    -2.75170478313799e+00  5.82166481359513e-01 -1.15360564992263e+00 
 H  3.36949864571862e+00  1.91983444190356e+00  5.49780357263076e+00     3.45821139830065e+00 -2.46403399518683e+00 -1.70719774512233e+00 
 O  4.81826291257632e+00  4.38702018469990e+00  3.73393915724508e+00    -1.60528164845427e-01  6.96254347327691e-01  3.37742975949601e-01 
 H  5.15865342553579e+00  5.10655676356163e+00  8.36663489564607e+00     1.14905500876973e+00  1.34068761720040e+00  1.09290693106775e+00 
 H  7.08336688049369e+00  2.47653643902557e+00  2.66095301914023e+00    -1.41852069036354e-01  1.14715974090851e+00  8.27997206848562e-01 
 O  5.12756856269147e+00  8.12874357107229e+00  1.23194807306211e+00    -3.03906544163151e-01 -1.05067469531295e-01  1.05042391319925e+00 
 H  1.74082563870499e+00  7.77283827047854e+00  6.88836974461264e+00     2.30329383072490e+00 -4.02991214363071e-01 -9.23788787461571e-01 
 H  3.58501136490752e+00  6.52320648327131e+00  5.10193371206540e+00     5.86418708247360e-02  2.80690695421021e-01 -3.03594137807035e-01 
 O  4.79810504273767e+00  6.57509444890605e+00  6.94050190930488e+00     4.35547464871908e-03  3.91923921125541e-01  1.04719319158663e+00 
 H  2.48376341457374e+00 -5.85751311085519e-01  2.33871354709018e+00     3.65521101123627e+00 -1.27165560249076e+00  9.02723553081622e-01 
 H  5.44817130214886e+00  8.76044640235970e+00  6.56041577048673e-01    -6.45416779189297e-01  1.42544069711013e+00 -2.01335511690778e+00 
 O  3.40793315711935e+00  8.78042755033247e+00  6.34173978901506e+00     1.03810407579974e+00  1.19472088780461e+00  3.02904628339261e-02 
 H  6.44868231013217e-01  6.10218664617163e-01  1.69163555044673e+00     1.35466634422039e+00  4.14692930383813e-01  3.22741203948499e+00 
 H  7.29414825476613e+00  5.37568040223644e+00 -2.31931523608761e-01    -2.35653174193830e+00 -2.99399208187370e+00  3.08200566666963e+00 
 O  7.76051748957218e+00  4.64504226217432e+00  4.49445073026300e-01     1.66006734104763e-01  4.42637327742528e-01 -4.23568688950018e-02 
 H  1.96630883535338e+00  3.11808715758986e+00  3.74479013857339e+00     3.10445227163891e+00 -7.61453182941215e-01  2.84896714700283e+00 
 H  6.94348594839586e+00  8.55295003297583e+00  3.39739061413271e+00     7.24205221314996e-01  2.97376293563961e-01 -8.79474800184361e-01 
 O  6.96079375525479e+00  5.72205736804979e+00  5.50994747838955e+00     2.13648854049449e-01  7.30994905597809e-01  4.74046173842671e-01 
 H  3.24062435695516e+00  8.07649892341633e+00  5.61020682959169e+00    -1.12394865949573e+00 -1.86533094561993e+00 -4.00349269150732e-01 
 H -2.93887783328140e-01  5.03583928213001e+00  3.52544011605502e+00    -1.11174871527135e+00  4.87561695074595e-01 -8.37356389282788e-01 
 O  4.81149260093940e+00  4.26874411941941e+00  8.15888479427549e+00     1.35205737685041e-01  2.51728391052024e-02 -9.51372371007471e-02 
 H  6.88099573982463e+00  1.59885409650432e-01  6.83112904245411e+00     1.83586760669867e+00  1.26321636765717e+00 -8.43329498234322e-01 
 H  7.14178544797276e+00  2.75673067664599e+00  4.44667526317322e+00     1.89775090413814e+00 -2.35097816145166e+00  3.63907750116118e-01 
 O  5.49145296135149e+00  8.51672570089328e-01  3.86416446854865e+00    -9.76871333315515e-02  1.09976883563237e+00 -4.40088502600947e-01 
 H  7.36288366766596e-01  6.17510059305113e+00  3.55194063248631e+00    -2.93155036432773e+00 -1.13543442846175e+00 -2.04506053042028e+00 
 H  6.48991528262059e-01  2.26474515987686e+00  3.08921254999925e+00    -6.08780076108664e+00  8.18337736698234e-01 -3.21789193092585e-01 
 O  2.82041991262970e+00  6.35680579170921e-01  4.63362541792845e-01    -4.04929857531005e-01 -5.95794136030630e-01  9.31115771252431e-02 
 H  3.98476368207388e+00  1.60074805644319e+00  1.75629880040190e+00    -2.78564655907174e+00 -2.83986845789544e+00  3.47280590480689e+00 
 H  5.11977276907605e+00  2.59916459364949e+00  8.80892122738191e-01     4.10719360631870e+00  3.43741428676589e+00  1.24685045187073e+00 
 O  5.70470301542764e+00  6.29484326957367e+00  3.48222629110856e+00     1.89000678271951e-01  1.56681214454233e-01 -1.84387229847536e-01 
 H  8.27453894233114e+00 -2.94940834050388e-01  2.71259443479286e+00    -2.61610719241400e+00 -4.15982852877373e+00  1.99530109023427e+00 
 H  1.56315404067710e+00  6.98188544628670e+00  5.95808630319130e+00     2.79110990868515e+00 -2.06766463289858e+00 -1.36702812539916e-01 
 O  1.42699840507029e+00  3.71198519590753e+00  1.29546927529072e+00     7.72927787551853e-01  1.59026333492302e-01  4.64341276008476e-01 
 H  2.48887104212060e+00  1.67256391232094e+00  7.82681182352842e+00     1.91799584003010e+00  4.94489713687863e-01 -3.75513695207202e+00 
 H  5.29269461755667e+00  8.33383887241681e-03  3.44126853419441e+00     3.18304973534746e+00 -2.26254016554888e+00  6.59755574872688e-01 
 O  8.32626956018427e+00  3.65809513023534e+00  5.94059115955418e+00     4.65187026211931e-03 -6.23322215708080e-01  4.97581853766165e-01 
 H  2.11204998821830e+00 -1.14511837538697e-01  1.05793353750697e-01     2.85936000932310e+00  5.99260198769089e-01 -1.17883937980567e+00 
 H  2.40266116649210e+00  5.95906514846842e+00  4.25161392354496e+00     3.76703888084295e-01 -3.80815299128015e-01  3.68178468732708e-01 
 O  7.32955030151256e+00  2.83753216711345e+00  3.52977660176728e+00    -4.68503301661685e-01 -2.58126476229121e-01 -4.09568949951730e-01 
 H  3.81224082436322e+00  6.14158196146885e+00  3.67738694717228e+00    -3.13425986232477e+00  1.79796115892820e+00  8.81954983469569e-01 
 H  6.19784222686269e+00  6.01904295012627e+00  2.64920006692729e+00     1.83322514995540e+00 -1.52710320390507e+00 -1.09179008521579e+00 
