   96
 8.60913  8.60913  8.60913
 O  2.35430  8.18994  6.98005     0.30384 -0.07045 -0.79278
 H  8.49335  6.59054  7.93989     1.63392 -3.04984 -0.74654
 H  1.48841  5.20950  6.48537    -1.25986 -2.60592 -3.82961
 O  0.94753  0.03644  4.92116    -0.12948 -0.34824 -0.75134
 H  2.71896  5.81873  8.09073    -1.17633  1.03834  1.05160
 H  7.48567  3.06528  4.68060    -2.98518  1.62225  3.76462
 O  1.81193  7.78083  3.01746    -0.30630 -0.41809 -0.28238
 H  3.21766  8.36660  6.63585    -2.05836 -1.49129  3.42611
 H  5.07006  7.32869  6.79173     3.48223  0.29392 -2.15505
 O  0.35760  2.48592  3.11198    -0.34221  0.21838  0.24696
 H  6.04855  4.29354  0.25593     0.07298 -1.21257  0.79745
 H  4.10294  2.19897  6.76111    -0.23460  1.96893 -2.29395
 O  2.17142  5.46214  7.18954    -0.86094  0.36908  0.09943
 H  4.92571  3.85824  3.42575     1.35493 -1.32881  0.68430
 H  0.22251  5.42289  0.76370     2.35812  0.89362  0.72690
 O  7.65311  2.24541  7.40786     0.51396 -0.38548 -0.87264
 H  1.81995  4.94095  2.15916     0.93150 -3.08932 -1.62947
 H  3.66896  4.48137  6.66949     0.68156  0.86327  4.73137
 O  0.11512  5.25409  3.42772     0.65700  0.10214 -0.57228
 H  6.17835  0.63241  4.69642     0.38494  0.21351  2.85525
 H  2.63795  5.50638  0.93024     0.76227  1.10555  2.52328
 O  3.61440  5.68113  0.49367     0.24428  0.11584 -0.24472
 H  8.26173  2.97873  7.24876    -4.23225 -1.33439  3.22822
 H  6.72305  6.01612  4.90527    -0.01065  0.84836  1.91722
 O  5.69446  1.05768  0.88814    -0.26631 -0.40910  0.78631
 H  4.91044  4.94993  1.99189     0.27563 -1.27432  1.08550
 H  2.40724  7.72563  3.84592     4.42507  0.75631  2.26160
 O  2.65697  2.18540  4.59992    -0.22599 -0.04664  0.08755
 H  7.54452  8.13895  0.14803     1.47230  2.36753 -1.06956
 H  7.32559  6.41069  7.10319     2.41416 -1.28858 -1.05502
 O  3.37540  2.84361  1.40607    -0.35544  0.25973 -0.09600
 H  7.65709  4.78701  5.67675     2.26294 -1.94811  0.12333
 H  7.29498  4.40961  1.87274    -1.24831 -2.16151 -1.36240
 O  0.33991  0.66228  0.98760    -0.02310 -0.34242  0.56058
 H  0.14070  0.29939  5.47239     1.12265 -1.51963  3.43026
 H  5.82888  7.22216  8.37424    -0.62579 -1.05902  0.62624
 O  8.04013  7.38708  3.04325     0.13767 -0.04752  0.24071
 H  2.45910  3.54189  1.32766    -0.85758  0.67919  1.31140
 H  1.33990  8.36903  4.12962     0.83282  5.02013 -1.47907
 O  3.92170  3.38393  6.42416    -0.43321  0.64018  0.07443
 H  5.27205  4.08214  7.67111     1.83618 -0.03916  0.10264
 H  7.91805  1.33545  7.36719    -1.65825  1.43352 -0.52876
 O  1.61607  2.23252  7.34216    -0.31216  0.80445  0.95598
 H  1.98103  1.94038  6.40665    -0.85707 -0.49313  1.02825
 H  5.50822  1.69058  3.17889    -1.72327  2.11609 -0.42171
 O  6.62069  8.03425  0.44816     0.33272 -0.44212  0.13417
 H  4.51997  5.55293  8.54494    -2.28165  0.22962 -1.57872
 H  1.03907  1.52152  0.98860    -0.61641  1.33829  0.47793
 O  0.39684  6.42310  0.17489    -0.77043 -0.03010 -0.35174
 H  2.00073  2.89576  4.87682    -1.85973 -0.01397 -3.04767
 H  5.64235  2.03701  0.67727     0.71203 -0.81246 -0.26084
 O  6.89131  0.10598  5.36275     0.26275 -0.38699 -0.46934
 H  4.98561  8.08084  3.32928     0.25826  2.89922 -0.12055
 H  3.26917  1.54593  1.23844     2.71559 -0.55631  1.44759
 O  3.23116  5.39812  5.04931     0.22982 -0.13462 -0.66182
 H  8.39330  3.20094  3.44662    -1.16942 -2.47884 -3.15241
 H  3.05678  1.28382  4.44931     1.49266  1.63707 -0.85442
 O  4.55580  4.50281  2.80520     0.51028  0.37598 -0.71808
 H  6.53942  2.53093  7.20952    -2.70023  1.36941 -1.07333
 H  7.44249  2.14589  2.55938    -0.23164  0.52987  0.54477
 O  4.40518  7.47574  2.78085     0.45096 -0.82859  0.36909
 H  2.56364  8.42622  0.77404     3.30580 -0.54567 -0.16455
 H  2.99546  4.72675  4.21023     0.28252  2.37865 -1.16414
 O  5.01300  6.95669  7.68617     0.42690 -0.04793 -0.37461
 H  1.73832  7.34560  2.06088    -2.45516 -2.41333 -0.91945
 H  4.93626  6.98172  1.95525     2.23323  0.15930  1.41733
 O  4.50070  1.13669  6.76344     0.09312 -0.69933 -0.71575
 H  8.06341  1.22406  1.30059     2.01245  0.27426 -2.81315
 H  0.21275  4.05860  1.34684    -0.68251  0.67161 -2.31813
 O  7.92243  4.14737  0.94706     0.33469 -0.09398  0.53593
 H  1.17184  0.28899  1.26545    -2.88486  0.86608 -2.76845
 H  7.57545  7.90896  2.44839     0.56802 -0.74421 -1.39060
 O  7.72683  6.07505  6.33967    -0.20513 -0.15534  0.42582
 H  5.20404  1.42193  7.34400     1.25012  1.25209  1.46888
 H  0.66263  5.01925  4.24473    -0.69638  1.31473  0.19940
 O  5.58841  3.57676  8.49077     0.40614  0.08953  0.00596
 H  6.52376  8.04387  5.89979    -2.08160  1.55703  1.02986
 H  6.32679  2.92304  1.46875    -0.99704  1.80687  1.03634
 O  5.24206  1.30987  4.05323     0.29391 -0.15668  0.34623
 H  8.43814  6.37518  3.26668     1.19191  2.28863  1.90325
 H  0.58365  2.23323  4.02736    -2.74614  0.84077  0.78520
 O  3.21705  0.47856  0.89852     0.97608  0.02281  0.70896
 H  4.09247  2.65258  0.67616     0.09533  0.37948 -0.81798
 H  6.23538  0.27792  0.92725     0.12531 -1.32824  3.94225
 O  5.76938  6.11777  4.77177    -0.57297 -0.46755  1.10217
 H  0.74468  7.76361  3.04192     2.82068 -1.66433  2.36759
 H  1.71424  7.57193  7.00691    -1.50234  0.99804 -1.80501
 O  1.62695  4.24969  1.41886    -0.51724  0.43485  0.40889
 H  1.97264  2.91196  7.94480     0.75638  2.56329 -0.35976
 H  4.82980  1.92743  4.70835    -0.31460 -0.21874  2.95436
 O  7.59155  3.94578  5.05704    -0.56643  1.01404 -0.83494
 H  3.21747  0.42838  8.31401    -0.16737 -0.05904 -0.92238
 H  2.70901  5.46071  6.05957    -1.06993 -0.59526 -1.70142
 O  6.55826  2.56656  2.35704    -0.28061  0.21159 -0.19296
 H  5.52236  6.23047  3.55040    -1.82576  1.28284  3.28645
 H  5.49892  7.19141  4.96328    -1.01214  1.00002 -1.36505
