5

H      3.0116      1.2547      7.7856
H      4.7536      1.7454      9.5940
H      4.6080      0.5943      6.9770
N      4.9669      1.1471      8.7891
C      4.0635      1.2227      7.8421
5

H      2.9697      1.3733      7.7965
H      4.8051      1.7214      9.6755
H      4.6669      0.6188      7.0040
N      4.9424      1.1625      8.7924
C      4.0432      1.2336      7.8342
5

H      2.9389      1.4991      7.8130
H      4.8621      1.6806      9.7595
H      4.6934      0.6702      7.0340
N      4.9158      1.1785      8.7956
C      4.0281      1.2417      7.8269
5

H      2.9281      1.6284      7.8354
H      4.9211      1.6223      9.8341
H      4.6850      0.7437      7.0597
N      4.8875      1.1949      8.7992
C      4.0173      1.2475      7.8208
5

H      2.9409      1.7564      7.8633
H      4.9776      1.5489      9.8901
H      4.6459      0.8314      7.0706
N      4.8582      1.2115      8.8040
C      4.0096      1.2522      7.8170
5

H      2.9759      1.8776      7.8953
H      5.0277      1.4644      9.9214
H      4.5875      0.9232      7.0529
N      4.8286      1.2280      8.8100
C      4.0036      1.2568      7.8166
5

H      3.0287      1.9857      7.9289
H      5.0691      1.3727      9.9250
H      4.5240      1.0090      6.9927
N      4.7996      1.2437      8.8171
C      3.9978      1.2624      7.8210
5

H      3.0935      2.0762      7.9612
H      5.1011      1.2775      9.9002
H      4.4605      1.0863      6.8905
N      4.7724      1.2573      8.8248
C      3.9916      1.2693      7.8302
5

H      3.1630      2.1466      7.9885
H      5.1245      1.1819      9.8501
H      4.3941      1.1560      6.7660
N      4.7475      1.2678      8.8323
C      3.9854      1.2777      7.8430
5

H      3.2270      2.1975      8.0059
H      5.1427      1.0874      9.7824
H      4.3242      1.2148      6.6421
N      4.7254      1.2746      8.8389
C      3.9794      1.2876      7.8576
5

H      3.2778      2.2317      8.0100
H      5.1613      0.9935      9.7079
H      4.2545      1.2569      6.5305
N      4.7062      1.2776      8.8438
C      3.9733      1.2990      7.8731
