11

O      2.1090     10.3131      6.8378
H      3.4046      9.5057      6.4161
H      2.4815     12.8925      5.1994
H      5.1403      9.9999      7.1976
H      5.0116      8.8323      5.8014
H      4.3546     11.2642      4.6299
H      4.6642     11.9845      5.9067
N      2.0368     12.1654      5.7553
N      4.3761      9.6857      6.2550
C      2.8077     11.2632      6.1937
C      4.0512     10.8547      5.5503
11

O      2.1070     10.3087      6.8305
H      3.4089      9.4788      6.4774
H      2.4636     12.8527      5.1596
H      5.1316      9.9937      7.2428
H      4.9427      8.9048      5.8132
H      4.3236     11.2273      4.5793
H      4.6291     11.9604      5.9196
N      2.0331     12.1869      5.7598
N      4.3622      9.6856      6.2445
C      2.8003     11.2584      6.1983
C      4.0350     10.8486      5.5568
11

O      2.1052     10.3038      6.8242
H      3.3999      9.4400      6.5520
H      2.4553     12.8176      5.1074
H      5.1014      9.9895      7.2742
H      4.8698      8.9902      5.8280
H      4.2849     11.1708      4.5239
H      4.5817     11.9088      5.9418
N      2.0296     12.2093      5.7647
N      4.3531      9.6864      6.2357
C      2.7891     11.2528      6.2016
C      4.0210     10.8462      5.5655
11

O      2.1037     10.2984      6.8191
H      3.3865      9.3929      6.6343
H      2.4577     12.7888      5.0434
H      5.0513      9.9872      7.2873
H      4.8173      9.0541      5.8264
H      4.2370     11.0960      4.4742
H      4.5278     11.8329      5.9701
N      2.0266     12.2315      5.7705
N      4.3464      9.6896      6.2305
C      2.7734     11.2473      6.2032
C      4.0093     10.8478      5.5753
11

O      2.1023     10.2926      6.8154
H      3.3807      9.3445      6.7132
H      2.4678     12.7620      4.9757
H      4.9820      9.9839      7.2755
H      4.8079      9.0645      5.7884
H      4.1794     11.0075      4.4374
H      4.4750     11.7408      6.0020
N      2.0246     12.2532      5.7769
N      4.3396      9.6968      6.2315
C      2.7528     11.2427      6.2025
C      3.9995     10.8530      5.5854
11

O      2.1004     10.2863      6.8136
H      3.3907      9.3008      6.7765
H      2.4804     12.7315      4.9155
H      4.8958      9.9765      7.2324
H      4.8359      9.0274      5.7176
H      4.1124     10.9127      4.4172
H      4.4335     11.6501      6.0393
N      2.0243     12.2742      5.7835
N      4.3326      9.7065      6.2388
C      2.7274     11.2398      6.1990
C      3.9905     10.8604      5.5950
11

O      2.0979     10.2797      6.8138
H      3.4198      9.2644      6.8138
H      2.4912     12.6946      4.8723
H      4.8000      9.9641      7.1597
H      4.8754      8.9766      5.6396
H      4.0386     10.8190      4.4161
H      4.4160     11.5893      6.0895
N      2.0259     12.2944      5.7897
N      4.3266      9.7151      6.2508
C      2.6981     11.2388      6.1923
C      3.9809     10.8679      5.6030
11

O      2.0942     10.2729      6.8161
H      3.4670      9.2354      6.8192
H      2.4981     12.6521      4.8510
H      4.7120      9.9518      7.0789
H      4.9066      8.9375      5.5769
H      3.9617     10.7325      4.4355
H      4.4301     11.5761      6.1581
N      2.0292     12.3136      5.7955
N      4.3220      9.7200      6.2644
C      2.6656     11.2399      6.1824
C      3.9695     10.8740      5.6087
11

O      2.0892     10.2662      6.8205
H      3.5267      9.2114      6.7924
H      2.5007     12.6071      4.8522
H      4.6598      9.9528      7.0377
H      4.9220      8.9189      5.5396
H      3.8861     10.6576      4.4746
H      4.4701     11.6024      6.2364
N      2.0339     12.3319      5.8007
N      4.3175      9.7195      6.2754
C      2.6307     11.2425      6.1698
C      3.9564     10.8792      5.6129
11

O      2.0827     10.2599      6.8268
H      3.5875      9.1868      6.7393
H      2.5005     12.5649      4.8720
H      4.6625      9.9786      7.0732
H      4.9204      8.9217      5.5304
H      3.8161     10.5973      4.5294
H      4.5209     11.6477      6.3073
N      2.0396     12.3492      5.8056
N      4.3124      9.7134      6.2803
C      2.5941     11.2461      6.1551
C      3.9426     10.8846      5.6172
11

O      2.0749     10.2545      6.8349
H      3.6322      9.1511      6.6733
H      2.5007     12.5313      4.9025
H      4.7079     10.0219      7.1627
H      4.9029      8.9443      5.5480
H      3.7545     10.5537      4.5902
H      4.5686     11.6962      6.3582
N      2.0456     12.3658      5.8103
N      4.3085      9.7034      6.2802
C      2.5571     11.2496      6.1391
C      3.9286     10.8910      5.6230
11

O      2.0660     10.2504      6.8442
H      3.6449      9.0933      6.6092
H      2.5065     12.5102      4.9342
H      4.7690     10.0645      7.2564
H      4.8725      8.9850      5.5889
H      3.7024     10.5276      4.6436
H      4.6044     11.7377      6.3827
N      2.0512     12.3819      5.8156
N      4.3087      9.6924      6.2781
C      2.5204     11.2524      6.1227
C      3.9149     10.8984      5.6313
11

O      2.0561     10.2481      6.8546
H      3.6251      9.0136      6.5537
H      2.5230     12.5039      4.9579
H      4.8268     10.0946      7.3248
H      4.8365      9.0390      5.6452
H      3.6602     10.5174      4.6795
H      4.6224     11.7660      6.3785
N      2.0558     12.3979      5.8217
N      4.3135      9.6825      6.2766
C      2.4849     11.2536      6.1069
C      3.9017     10.9068      5.6427
11

O      2.0453     10.2477      6.8660
H      3.5886      8.9270      6.5054
H      2.5527     12.5139      4.9691
H      4.8730     10.1094      7.3603
H      4.8097      9.0935      5.6998
H      3.6282     10.5219      4.6922
H      4.6193     11.7783      6.3457
N      2.0590     12.4140      5.8292
N      4.3213      9.6744      6.2776
C      2.4514     11.2530      6.0922
C      3.8890     10.9158      5.6576
11

O      2.0338     10.2493      6.8782
H      3.5533      8.8512      6.4612
H      2.5934     12.5401      4.9714
H      4.9052     10.1094      7.3635
H      4.8134      9.1278      5.7280
H      3.6078     10.5406      4.6833
H      4.5948     11.7747      6.2870
N      2.0608     12.4304      5.8376
N      4.3295      9.6691      6.2833
C      2.4205     11.2504      6.0793
C      3.8768     10.9249      5.6753
11

O      2.0217     10.2528      6.8914
H      3.5298      8.7976      6.4200
H      2.6392     12.5817      4.9739
H      4.9229     10.0949      7.3368
H      4.8595      9.1300      5.7151
H      3.6009     10.5739      4.6598
H      4.5505     11.7571      6.2069
N      2.0617     12.4471      5.8463
N      4.3363      9.6673      6.2947
C      2.3927     11.2460      6.0686
C      3.8648     10.9333      5.6949
11

O      2.0087     10.2583      6.9056
H      3.5213      8.7718      6.3813
H      2.6832     12.6371      4.9852
H      4.9258     10.0667      7.2832
H      4.9361      9.1125      5.6727
H      3.6098     10.6202      4.6326
H      4.4918     11.7308      6.1126
N      2.0622     12.4638      5.8547
N      4.3420      9.6681      6.3106
C      2.3679     11.2404      6.0602
C      3.8526     10.9402      5.7150
11

O      1.9947     10.2655      6.9204
H      3.5276      8.7765      6.3458
H      2.7197     12.7045      5.0102
H      4.9150     10.0267      7.2089
H      5.0188      9.0968      5.6250
H      3.6354     10.6769      4.6114
H      4.4315     11.7094      6.0149
N      2.0629     12.4802      5.8627
N      4.3479      9.6702      6.3284
C      2.3464     11.2343      6.0543
C      3.8390     10.9444      5.7342
11

O      1.9796     10.2741      6.9358
H      3.5477      8.8122      6.3152
H      2.7452     12.7806      5.0506
H      4.8966      9.9799      7.1285
H      5.0882      9.0960      5.5892
H      3.6758     10.7404      4.6023
H      4.3886     11.7151      5.9257
N      2.0640     12.4958      5.8701
N      4.3546      9.6727      6.3455
C      2.3283     11.2288      6.0508
C      3.8228     10.9439      5.7507
11

O      1.9630     10.2840      6.9514
H      3.5800      8.8763      6.2927
H      2.7575     12.8604      5.1064
H      4.8874      9.9365      7.0707
H      5.1344      9.1145      5.5731
H      3.7275     10.8060      4.6080
H      4.3741     11.7611      5.8506
N      2.0657     12.5102      5.8772
N      4.3612      9.6750      6.3592
C      2.3140     11.2250      6.0496
C      3.8033     10.9378      5.7641
11

O      1.9450     10.2949      6.9671
H      3.6199      8.9605      6.2816
H      2.7569     12.9389      5.1749
H      4.9075      9.9074      7.0666
H      5.1532      9.1519      5.5780
H      3.7860     10.8681      4.6277
H      4.3791     11.8339      5.7898
N      2.0679     12.5231      5.8844
N      4.3667      9.6768      6.3666
C      2.3033     11.2236      6.0506
C      3.7819     10.9278      5.7744
11

O      1.9256     10.3068      6.9824
H      3.6545      9.0459      6.2844
H      2.7464     13.0129      5.2513
H      4.9578      9.8944      7.1201
H      5.1440      9.2057      5.6023
H      3.8462     10.9217      4.6570
H      4.3872     11.9086      5.7450
N      2.0702     12.5342      5.8920
N      4.3715      9.6795      6.3674
C      2.2961     11.2248      6.0537
C      3.7605     10.9166      5.7819
11

O      1.9050     10.3198      6.9971
H      3.6613      9.1070      6.3013
H      2.7317     13.0816      5.3291
H      5.0144      9.8917      7.2034
H      5.1095      9.2715      5.6412
H      3.9036     10.9627      4.6893
H      4.3881     11.9682      5.7198
N      2.0721     12.5433      5.9003
N      4.3784      9.6855      6.3635
C      2.2921     11.2286      6.0591
C      3.7406     10.9062      5.7866
11

O      1.8834     10.3340      7.0114
H      3.6255      9.1289      6.3323
H      2.7190     13.1459      5.4028
H      5.0543      9.8950      7.2873
H      5.0585      9.3424      5.6856
H      3.9549     10.9885      4.7181
H      4.3779     12.0052      5.7171
N      2.0732     12.5501      5.9096
N      4.3889      9.6967      6.3577
C      2.2911     11.2349      6.0666
C      3.7232     10.8980      5.7888
11

O      1.8612     10.3495      7.0252
H      3.5595      9.1212      6.3783
H      2.7121     13.2064      5.4693
H      5.0689      9.9026      7.3564
H      5.0110      9.4064      5.7167
H      3.9976     10.9977      4.7389
H      4.3560     12.0175      5.7380
N      2.0732     12.5548      5.9199
N      4.4012      9.7132      6.3524
C      2.2927     11.2432      6.0764
C      3.7087     10.8923      5.7887
11

O      1.8388     10.3666      7.0384
H      3.4900      9.1050      6.4372
H      2.7112     13.2607      5.5289
H      5.0588      9.9137      7.4048
H      4.9926      9.4490      5.7093
H      4.0301     10.9905      4.7493
H      4.3232     12.0055      5.7820
N      2.0720     12.5578      5.9307
N      4.4111      9.7345      6.3500
C      2.2967     11.2532      6.0886
C      3.6975     10.8894      5.7864
11

O      1.8165     10.3852      7.0511
H      3.4350      9.0952      6.5037
H      2.7137     13.3043      5.5838
H      5.0280      9.9278      7.4295
H      5.0117      9.4650      5.6551
H      4.0509     10.9685      4.7495
H      4.2814     11.9705      5.8467
N      2.0699     12.5597      5.9417
N      4.4166      9.7598      6.3517
C      2.3025     11.2641      6.1032
C      3.6899     10.8895      5.7822
11

O      1.7947     10.4051      7.0629
H      3.4001      9.0977      6.5711
H      2.7167     13.3324      5.6356
H      4.9803      9.9451      7.4287
H      5.0490      9.4623      5.5760
H      4.0588     10.9350      4.7403
H      4.2335     11.9163      5.9279
N      2.0671     12.5614      5.9524
N      4.4183      9.7874      6.3565
C      2.3095     11.2750      6.1201
C      3.6860     10.8925      5.7761
11

O      1.7736     -0.5313      7.0735
H      3.3851     -1.8434      6.6334
H      2.7184      2.3849      5.6846
H      4.9196     -0.9912      7.4019
H      5.0802     -1.5053      5.5019
H      4.0527     -0.0621      4.7234
H      4.1853      0.8932      6.0199
N      2.0638      1.6058      5.9628
N      4.4178     -1.1419      6.3631
C      2.3171      0.3277      6.1393
C      3.6856     -0.0594      5.7684
11

O      1.7536     -0.5092      7.0829
H      3.3882     -1.8138      6.6854
H      2.7194      2.3775      5.7303
H      4.8515     -0.9654      7.3532
H      5.0912     -1.5165      5.4512
H      4.0319     -0.1019      4.7013
H      4.1445      0.8293      6.1179
N      2.0600      1.6083      5.9727
N      4.4159     -1.1144      6.3701
C      2.3246      0.3367      6.1606
C      3.6879     -0.0520      5.7593
11

O      1.7351     -0.4863      7.0910
H      3.4082     -1.7721      6.7227
H      2.7228      2.3569      5.7710
H      4.7831     -0.9310      7.2949
H      5.0777     -1.5266      5.4315
H      3.9970     -0.1364      4.6768
H      4.1188      0.7853      6.2186
N      2.0557      1.6111      5.9822
N      4.4126     -1.0891      6.3765
C      2.3316      0.3441      6.1836
C      3.6923     -0.0435      5.7487
11

O      1.7185     -0.4628      7.0977
H      3.4448     -1.7199      6.7428
H      2.7331      2.3299      5.8049
H      4.7247     -0.8808      7.2513
H      5.0406     -1.5355      5.4443
H      3.9497     -0.1616      4.6524
H      4.1107      0.7709      6.3178
N      2.0507      1.6140      5.9917
N      4.4070     -1.0672      6.3807
C      2.3378      0.3498      6.2080
C      3.6982     -0.0342      5.7370
11

O      1.7042     -0.4389      7.1031
H      3.4979     -1.6595      6.7452
H      2.7547      2.3029      5.8304
H      4.6881     -0.8104      7.2469
H      4.9835     -1.5440      5.4879
H      3.8926     -0.1753      4.6296
H      4.1166      0.7833      6.4075
N      2.0449      1.6165      6.0014
N      4.3984     -1.0497      6.3811
C      2.3430      0.3539      6.2333
C      3.7051     -0.0233      5.7247
11

O      1.6928     -0.4150      7.1074
H      3.5638     -1.5964      6.7332
H      2.7887      2.2787      5.8472
H      4.6766     -0.7212      7.2820
H      4.9126     -1.5538      5.5574
H      3.8287     -0.1772      4.6085
H      4.1317      0.8151      6.4780
N      2.0383      1.6185      6.0115
N      4.3869     -1.0367      6.3781
C      2.3472      0.3566      6.2591
C      3.7129     -0.0098      5.7130
11

O      1.6844     -0.3915      7.1107
H      3.6287     -1.5419      6.7155
H      2.8310      2.2559      5.8557
H      4.6843     -0.6234      7.3327
H      4.8383     -1.5684      5.6417
H      3.7611     -0.1679      4.5892
H      4.1518      0.8596      6.5226
N      2.0315      1.6201      6.0220
N      4.3740     -1.0267      6.3738
C      2.3504      0.3586      6.2847
C      3.7211      0.0069      5.7024
11

O      1.6794     -0.3691      7.1133
H      3.6669     -1.5136      6.7067
H      2.8740      2.2305      5.8572
H      4.7043     -0.5309      7.3748
H      4.7755     -1.5963      5.7227
H      3.6928     -0.1490      4.5722
H      4.1738      0.9115      6.5379
N      2.0253      1.6214      6.0328
N      4.3614     -1.0168      6.3706
C      2.3528      0.3606      6.3096
C      3.7294      0.0269      5.6934
11

O      1.6776     -0.3482      7.1157
H      3.6571     -1.5232      6.7201
H      2.9097      2.1996      5.8528
H      4.7318     -0.4541      7.3970
H      4.7381     -1.6485      5.7822
H      3.6265     -0.1217      4.5587
H      4.1952      0.9666      6.5234
N      2.0204      1.6228      6.0436
N      4.3504     -1.0044      6.3698
C      2.3546      0.3635      6.3333
C      3.7375      0.0502      5.6860
11

O      1.6791     -0.3294      7.1182
H      3.6052     -1.5619      6.7547
H      2.9322      2.1623      5.8438
H      4.7636     -0.3989      7.3973
H      4.7294     -1.7256      5.8166
H      3.5653     -0.0876      4.5513
H      4.2134      1.0199      6.4797
N      2.0176      1.6245      6.0543
N      4.3407     -0.9892      6.3720
C      2.3561      0.3678      6.3550
C      3.7453      0.0762      5.6803
11

O      1.6834     -0.3131      7.1213
H      3.5357     -1.6066      6.7979
H      2.9387      2.1207      5.8305
H      4.7968     -0.3683      7.3767
H      4.7404     -1.8115      5.8371
H      3.5122     -0.0481      4.5522
H      4.2267      1.0659      6.4088
N      2.0169      1.6268      6.0648
N      4.3314     -0.9732      6.3772
C      2.3576      0.3743      6.3744
C      3.7526      0.1043      5.6764
11

O      1.6904     -0.2997      7.1253
H      3.4696     -1.6383      6.8376
H      2.9304      2.0789      5.8123
H      4.8284     -0.3636      7.3372
H      4.7594     -1.8858      5.8569
H      3.4698     -0.0041      4.5626
H      4.2336      1.1002      6.3140
N      2.0184      1.6297      6.0752
N      4.3220     -0.9584      6.3848
C      2.3594      0.3833      6.3910
C      3.7594      0.1338      5.6743
11

O      1.6996     -0.2897      7.1306
H      3.4171     -1.6476      6.8666
H      2.9122      2.0426      5.7875
H      4.8551     -0.3848      7.2810
H      4.7785     -1.9351      5.8835
H      3.4398      0.0435      4.5818
H      4.2334      1.1207      6.1992
N      2.0216      1.6333      6.0853
N      4.3127     -0.9460      6.3945
C      2.3615      0.3951      6.4043
C      3.7657      0.1640      5.6740
11

O      1.7105     -0.2834      7.1376
H      3.3825     -1.6309      6.8820
H      2.8912      2.0176      5.7538
H      4.8745     -0.4294      7.2120
H      4.7936     -1.9545      5.9187
H      3.4228      0.0934      4.6073
H      4.2275      1.1291      6.0707
N      2.0258      1.6376      6.0954
N      4.3034     -0.9362      6.4058
C      2.3644      0.4099      6.4137
C      3.7711      0.1939      5.6756
11

O      1.7227     -0.2807      7.1463
H      3.3675     -1.5879      6.8829
H      2.8732      2.0073      5.7090
H      4.8887     -0.4910      7.1393
H      4.8029     -1.9438      5.9616
H      3.4181      0.1434      4.6350
H      4.2211      1.1337      5.9373
N      2.0304      1.6427      6.1056
N      4.2938     -0.9292      6.4177
C      2.3684      0.4278      6.4191
C      3.7752      0.2222      5.6789
11

O      1.7362     -0.2815      7.1567
H      3.3727     -1.5200      6.8705
H      2.8587      2.0119      5.6531
H      4.9062     -0.5581      7.0784
H      4.8053     -1.9051      6.0086
H      3.4234      0.1903      4.6599
H      4.2229      1.1491      5.8080
N      2.0351      1.6490      6.1159
N      4.2834     -0.9252      6.4290
C      2.3737      0.4483      6.4207
C      3.7773      0.2471      5.6836
11

O      1.7508     -0.2854      7.1687
H      3.3954     -1.4313      6.8480
H      2.8426      2.0290      5.5892
H      4.9405     -0.6189      7.0462
H      4.8001     -1.8432      6.0548
H      3.4355      0.2300      4.6764
H      4.2394      1.1855      5.6884
N      2.0397      1.6571      6.1260
N      4.2713     -0.9241      6.4382
C      2.3805      0.4706      6.4186
C      3.7770      0.2674      5.6899
11

O      1.7666     -0.2918      7.1818
H      3.4251     -1.3321      6.8233
H      2.8176      2.0543      5.5235
H      4.9957     -0.6680      7.0488
H      4.7882     -1.7675      6.0925
H      3.4508      0.2585      4.6804
H      4.2681      1.2373      5.5810
N      2.0442      1.6676      6.1356
N      4.2580     -0.9250      6.4447
C      2.3891      0.4936      6.4136
C      3.7745      0.2835      5.6981
11

O      1.7835     -0.3001      7.1955
H      3.4387     -1.2385      6.8100
H      2.7777      2.0828      5.4630
H      5.0584     -0.7067      7.0762
H      4.7736     -1.6937      6.1120
H      3.4667      0.2723      4.6718
H      4.2989      1.2879      5.4904
N      2.0485      1.6814      6.1442
N      4.2456     -0.9254      6.4488
C      2.3992      0.5163      6.4065
C      3.7708      0.2967      5.7079
11

O      1.8015     -0.3096      7.2095
H      3.4110     -1.1645      6.8215
H      2.7211      2.1104      5.4134
H      5.1094     -0.7377      7.1145
H      4.7638     -1.6419      6.1029
H      3.4821      0.2694      4.6547
H      4.3214      1.3234      5.4226
N      2.0524      1.6988      6.1515
N      4.2368     -0.9228      6.4514
C      2.4109      0.5377      6.3981
C      3.7665      0.3081      5.7187
11

O      1.8208     -0.3198      7.2234
H      3.3410     -1.1127      6.8586
H      2.6500      2.1349      5.3780
H      5.1363     -0.7619      7.1525
H      4.7639     -1.6247      6.0590
H      3.4969      0.2493      4.6358
H      4.3289      1.3356      5.3826
N      2.0553      1.7199      6.1574
N      4.2319     -0.9161      6.4535
C      2.4240      0.5572      6.3892
C      3.7623      0.3185      5.7295
11

O      1.8412     -0.3300      7.2371
H      3.2530     -1.0782      6.9090
H      2.5702      2.1566      5.3564
H      5.1343     -0.7795      7.1832
H      4.7691     -1.6374      5.9841
H      3.5110      0.2132      4.6216
H      4.3193      1.3205      5.3736
N      2.0571      1.7441      6.1620
N      4.2300     -0.9059      6.4563
C      2.4381      0.5748      6.3799
C      3.7585      0.3278      5.7394
11

O      1.8630     -0.3399      7.2505
H      3.1701     -1.0564      6.9594
H      2.4892      2.1785      5.3438
H      5.1037     -0.7908      7.2014
H      4.7678     -1.6629      5.8912
H      3.5242      0.1637      4.6166
H      4.2950      1.2785      5.3957
N      2.0572      1.7704      6.1660
N      4.2303     -0.8938      6.4599
C      2.4525      0.5913      6.3705
C      3.7553      0.3358      5.7478
11

O      1.8864     -0.3495      7.2634
H      3.1011     -1.0440      7.0025
H      2.4141      2.2050      5.3332
H      5.0480     -0.7956      7.2046
H      4.7515     -1.6852      5.7948
H      3.5360      0.1040      4.6232
H      4.2644      1.2175      5.4447
N      2.0556      1.7973      6.1700
N      4.2323     -0.8812      6.4640
C      2.4664      0.6076      6.3610
C      3.7527      0.3416      5.7544
11

O      1.9115     -0.3587      7.2759
H      3.0454     -1.0376      7.0350
H      2.3490      2.2391      5.3185
H      4.9762     -0.7930      7.1948
H      4.7185     -1.6958      5.7060
H      3.5462      0.0384      4.6425
H      4.2424      1.1580      5.5114
N      2.0524      1.8235      6.1746
N      4.2358     -0.8691      6.4678
C      2.4791      0.6249      6.3515
C      3.7501      0.3433      5.7594
11

O      1.9384     -0.3673      7.2879
H      3.0002     -1.0351      7.0554
H      2.2942      2.2806      5.2994
H      4.9045     -0.7816      7.1824
H      4.6721     -1.6926      5.6319
H      3.5549     -0.0284      4.6740
H      4.2486      1.1296      5.5840
N      2.0478      1.8480      6.1798
N      4.2394     -0.8578      6.4700
C      2.4897      0.6440      6.3420
C      3.7465      0.3385      5.7631
