8

O      2.3866     11.0009      7.0460
H      2.5288     11.5940      4.0959
H      1.4042     11.7340      5.1545
H      4.3267      9.9925      4.4907
N      2.5247     11.8668      5.0539
N      5.2262      9.8093      6.6383
C      3.0031     10.8833      5.9335
C      4.3750     10.1992      5.5107
