29

O      6.0223      2.3777      2.3495
O      6.5048      4.7061      5.2080
O      7.0277     -1.5400      5.2011
O      9.0205     -1.4551      3.5925
O      9.2504     -0.2444      7.3978
O      5.3728      5.3633      3.4300
O      6.9270      0.2202      3.4263
H      6.6338     -2.5446      5.6550
H      7.4228      2.2397      7.2718
H      5.8782      4.0057      5.8059
H      8.9564     -1.1617      7.4369
H      5.6155      0.7566      5.2615
H     10.6399     -0.3704      4.7431
H      9.6082     -1.4267      2.8451
H      7.3287      0.4027      7.8434
H      9.7393     -1.2336      5.5382
H      7.8684     -1.7653      5.6059
H      7.3635      3.1066      5.3865
H      6.6575      4.3887      2.2215
N      7.1788      4.1475      3.1150
C      9.6712     -0.7268      4.7465
C      6.8478      2.7193      3.4376
C      7.3115      0.0955      4.7889
C      8.7888      0.4202      5.1195
C      6.3721      4.6691      3.9636
C      7.0506      2.4385      4.8466
C      7.4772      1.1381      6.9472
C      8.8157      0.8986      6.4869
C      6.6905      1.1165      5.5892
29

O      6.0114      2.3781      2.3701
O      6.4957      4.7252      5.2154
O      7.0080     -1.5491      5.1877
O      9.0454     -1.4578      3.5792
O      9.2541     -0.2415      7.3888
O      5.3725      5.3450      3.4399
O      6.9390      0.2296      3.4446
H      6.6607     -2.5999      5.6953
H      7.4282      2.1927      7.1943
H      5.9171      3.9406      5.7339
H      9.0011     -1.1463      7.3449
H      5.6416      0.7940      5.3248
H     10.5904     -0.4391      4.6949
H      9.6032     -1.4461      2.7971
H      7.3338      0.4297      7.7773
H      9.6888     -1.2416      5.6694
H      7.8350     -1.6717      5.5461
H      7.3944      3.1736      5.4590
H      6.5928      4.3843      2.1462
N      7.1848      4.1519      3.1104
C      9.6482     -0.7529      4.7542
C      6.8395      2.7155      3.4439
C      7.3049      0.0855      4.7855
C      8.7543      0.4171      5.1454
C      6.3450      4.6916      3.9596
C      7.0469      2.4471      4.8543
C      7.4827      1.1233      6.9602
C      8.8040      0.8908      6.4623
C      6.6792      1.1309      5.5793
29

O      6.0010      2.3784      2.3936
O      6.4870      4.7451      5.2253
O      6.9859     -1.5583      5.1744
O      9.0701     -1.4604      3.5681
O      9.2576     -0.2359      7.3810
O      5.3717      5.3268      3.4499
O      6.9531      0.2395      3.4627
H      6.6876     -2.6564      5.7326
H      7.4280      2.1359      7.1310
H      5.9588      3.8712      5.6675
H      9.0356     -1.1474      7.2454
H      5.6810      0.8512      5.3941
H     10.5813     -0.4992      4.6318
H      9.6084     -1.4686      2.7455
H      7.3254      0.4516      7.7134
H      9.6306     -1.2709      5.8059
H      7.8407     -1.5836      5.5022
H      7.4423      3.2601      5.5462
H      6.5496      4.3740      2.0845
N      7.1908      4.1540      3.1035
C      9.6215     -0.7786      4.7605
C      6.8305      2.7118      3.4500
C      7.3009      0.0759      4.7819
C      8.7198      0.4117      5.1653
C      6.3152      4.7190      3.9541
C      7.0421      2.4517      4.8579
C      7.4852      1.1092      6.9714
C      8.7935      0.8800      6.4400
C      6.6671      1.1455      5.5693
29

O      5.9908      2.3783      2.4196
O      6.4786      4.7657      5.2372
O      6.9617     -1.5673      5.1609
O      9.0945     -1.4632      3.5589
O      9.2609     -0.2282      7.3743
O      5.3694      5.3094      3.4592
O      6.9691      0.2500      3.4801
H      6.7150     -2.7210      5.7699
H      7.4207      2.0842      7.0876
H      6.0011      3.8030      5.6132
H      9.0610     -1.1599      7.1392
H      5.7114      0.9214      5.4651
H     10.6069     -0.5508      4.5586
H      9.6198     -1.4936      2.7007
H      7.2992      0.4501      7.6749
H      9.5670     -1.3050      5.9156
H      7.8811     -1.5048      5.4723
H      7.4896      3.3317      5.6156
H      6.5336      4.3556      2.0465
N      7.1958      4.1543      3.0946
C      9.5917     -0.8047      4.7677
C      6.8213      2.7088      3.4561
C      7.2983      0.0673      4.7787
C      8.6863      0.4029      5.1769
C      6.2854      4.7495      3.9474
C      7.0376      2.4549      4.8595
C      7.4848      1.0966      6.9781
C      8.7846      0.8667      6.4221
C      6.6560      1.1602      5.5601
