   96
 8.60913090000000e+00  8.60913090000000e+00  8.60913090000000e+00
 O  1.72968905291140e+00  7.25934772304853e+00  7.05488489083605e+00    -3.46468259692753e-01 -2.50619680015349e-01  2.80088319558734e-01
 H  1.05726774318055e+00  5.35324428496537e+00  4.41032849376663e-01    -1.06519296564329e+00 -8.49785912587396e-01  2.40792972313023e+00
 H  2.36158710230490e+00  5.83590991840420e+00  7.21070211377033e+00     1.07551076651468e-01 -2.25674666790780e+00 -8.84255030765198e-01
 O  9.37174376018412e+00  7.59832069781963e+00  4.79886869651877e+00     9.69620729480503e-02 -8.29903974103474e-01 -5.40964552589280e-01
 H  2.48335797589813e+00  4.20039063465314e+00  7.00390888734039e+00     1.74960956226054e-02  1.79346754578372e+00  5.92599583898598e-01
 H  9.06660645955828e+00  6.06454222847723e+00  6.31633528617892e+00     5.87841840344298e-01  2.26782043060365e+00  4.29368990651338e-01
 O  2.80592491919185e+00  8.38510742107685e+00  3.21009557527078e+00     5.44818289477114e-01  1.42344887548487e-02 -2.57782330076239e-02
 H -1.76965112650427e+00  9.46135485707214e-01  6.83133763107644e+00    -6.57808459248800e-01  8.05732038275772e-02 -2.55680260235404e+00
 H  5.03472957722828e+00  7.47983054793200e+00  8.58412074699136e+00     3.34770018378540e-01  1.74104039563711e+00 -1.23276105323221e+00
 O  1.56569986537372e-01  2.19625942339986e+00  3.23732460657204e+00    -5.74851017374698e-01  4.71324748358246e-02  5.37467401944966e-01
 H  4.70286149177096e+00  4.95358620055680e+00  9.97971412248648e+00     3.32642106789413e+00  1.26135948808003e+00  5.95286926220169e-01
 H  3.97552855893186e+00  9.14393875040005e+00  7.61592671440272e+00     2.26342442397114e+00  4.90649006169600e-01  1.15269652948171e+00
 O  2.87167574983345e+00  5.02693787652752e+00  7.37107904984738e+00    -4.59703175621479e-01  4.22799828325463e-01 -4.91774067959648e-01
 H  3.52358816067498e+00  4.50711554047931e+00  3.52852678200686e+00    -1.52150080451287e-01 -1.30241366079344e+00 -3.59389170862261e+00
 H -5.04079760838802e-01  6.74633798148740e+00  4.79214785364715e-01    -1.30902834384820e+00 -3.40149719029611e+00  2.81824567335281e+00
 O  7.48216993739084e+00  1.82141071565326e+00  7.37880500615797e+00    -3.75905309441436e-01  2.33696464119658e-01 -4.46200739474224e-01
 H -3.75890217273131e-01  4.27702857195543e+00  5.56488327614315e-01    -1.09926139051884e+00 -3.31593773253714e-01  1.65978940691460e+00
 H  5.36495494812237e+00  3.12721707691560e+00  6.29210447563839e+00     1.07303923184714e+00 -9.06743907108078e-01 -2.74492512341159e-01
 O -5.01621831336351e-01  5.26864272792913e+00  3.28303942437443e+00     8.08696315699232e-02  7.57572353871563e-01 -9.23546196186632e-02
 H  6.21844812869877e+00  4.39636547022052e-01  4.82911045269248e+00    -2.16067338763034e+00 -1.42627012728025e+00 -2.72195454441266e+00
 H  4.84524875860871e+00  5.69601906739002e+00  2.55131720880096e+00    -1.81496991491514e+00  2.02438954038044e+00 -1.90492210532350e+00
 O  4.05648612986918e+00  5.40740192994178e+00  1.95534108796857e+00    -8.32738814877157e-01 -3.54521979831425e-01  9.92847242868640e-01
 H -1.02576109749577e+00  4.20255130116198e+00  5.64546914410590e+00    -1.85516100376058e+00 -1.64788183799528e-01  2.12544795454855e+00
 H  5.68642759567370e+00  6.55123850452858e+00  4.60302379104650e+00     8.90740684565460e-01  3.06451139133864e-01 -1.02038243924412e-01
 O  5.73391056840396e+00  1.01515163967922e+00  1.19951922712958e+00     4.66073816731870e-01 -3.46432989628038e-01  4.29798315891131e-01
 H  4.45388288822415e+00  2.78202545288327e+00  3.80928354169135e+00     4.40495735913642e-01  8.89123296827716e-01  2.23580654663580e+00
 H  2.17412468492195e+00  7.94943655253560e+00  4.03960553387251e+00     3.71099396720085e-01  1.11411524736850e+00 -7.24645611632103e-01
 O  2.91527650329060e+00  1.68920987715296e+00  4.58540926499679e+00    -4.67768379821211e-02  1.28512804763178e-01  8.02314397945785e-01
 H  6.62161372553410e+00  7.12834215103556e+00  8.65828786466574e+00     6.91233493118529e-01  1.06895291488442e+00  2.53496790818563e+00
 H  7.15977906874164e+00  6.13954764139059e+00  6.57159540523150e+00     2.71047366896471e+00  2.67071392289658e+00  2.82825944768084e+00
 O  3.36507597359167e+00  2.60855521943901e+00  1.18258922704323e+00    -5.13578695593571e-01  7.26663199119627e-02 -6.67043703109043e-01
 H  7.22804311090654e+00  3.51623647629747e+00  4.32897456037745e+00    -4.53009716385294e+00  1.46468189416843e-01 -1.96737839342171e+00
 H  8.69838507633905e+00  3.63966867730740e+00 -8.88638434683095e-01     1.31837611455514e+00  7.34882249942859e-02  6.06148960581203e-01
 O  9.17976352478422e+00  1.24653114995065e+00  1.05398575649096e+00    -3.25361593931125e-01  1.09890129999505e+00  3.30216824840919e-02
 H  9.87681198417562e+00  8.41909211755223e+00  5.16877219940653e+00    -1.25996677253899e+00 -1.36296951979238e+00  2.72409896838679e+00
 H  3.64456822131248e+00  7.22751886494882e+00  8.04556059910525e+00     1.50314280613831e+00 -1.06044852430575e+00 -5.36449929021421e-01
 O  7.82115642947998e+00  8.25302151725909e+00  2.74278881116457e+00    -3.93031849617677e-01 -9.83853490590648e-02 -1.43315665840054e-01
 H  9.85759863389829e-01  3.70225362117733e+00  9.23962667867094e-01    -9.18446575940278e-01 -3.53622050257353e+00 -3.66744266698691e+00
 H  8.59568809452505e+00 -1.58722344127539e+00  5.39998923340644e+00     1.33573881717583e+00 -6.77940541177727e-01 -2.37072269336666e+00
 O  5.01822750861098e+00  4.09709941711928e+00  6.29435894411543e+00     4.09374281266535e-01  1.08628125518243e+00 -2.35665693184313e-01
 H  4.99814971341257e+00  4.33190405081796e+00  7.26586782208446e+00    -2.38722600538146e+00  6.37645577073228e-01 -1.36462189266214e+00
 H  6.79896952667477e+00  2.36899025097380e+00  7.74142113213186e+00     1.41315151257748e+00  1.00652175520610e+00 -5.81536228493534e-02
 O  1.30127534236330e+00  1.32131886765252e+00  6.72492393435680e+00    -1.16918766389387e-01 -4.10291778178187e-01  3.19135271157712e-01
 H  3.82269468483303e+00  1.80424922261319e+00  5.06800116054862e+00     1.31984555344001e+00 -2.90616253132752e-01  2.58283719255545e+00
 H  5.33746339188621e+00  8.99608276651732e-01  3.20562561428133e+00     6.87602316029926e-01  6.87412299705440e-02  2.15821930581350e-01
 O  7.17086168654781e+00  7.90853747982695e+00  8.48016477678787e+00     8.05299199870461e-02  3.09930372356502e-01 -8.51870698775864e-03
 H  3.27071264664300e+00  5.91323211949666e+00  1.19581445713325e+00     1.30544820378905e+00  7.94835416148369e-01 -3.03091799488882e-01
 H  9.12090380139957e+00  2.66367468258048e+00  2.38373113148664e+00    -2.05225211485878e+00  5.72793182507169e-01 -3.35369073460615e+00
 O  3.49609817327059e-01  6.01218645167499e+00  5.76810188244410e-01    -4.09186124558406e-01 -5.60661835630810e-02 -5.02184893814457e-01
 H  5.36303017088310e+00  4.85608486759276e+00  5.95598327087240e+00     9.28860725222242e-01  3.02681782013809e+00 -2.02386243589783e+00
 H  5.35718501503206e+00  2.39874994250084e-01  1.53313052360248e+00    -5.49546772564737e-01 -2.54410925121926e+00  5.54527748360813e+00
 O  6.98687669948940e+00  2.13567982317991e-01  5.59302876288939e+00     3.08579453627601e-01 -6.64186751416154e-01 -1.80587733775699e-01
 H  3.48787620336556e+00 -5.86431780209607e-01  1.84585704970119e+00     7.53186361964917e-01  1.08751977386846e+00 -2.18391376108359e+00
 H  2.38887040514297e+00  2.29902158712980e+00  1.65704298891079e+00    -6.71365410185685e-01  1.24595562814553e-01 -3.25812074629719e+00
 O  3.32367392273049e+00  5.97523904663745e+00  4.75749515408101e+00     9.07603355332060e-02 -7.00357853314987e-02  8.32949396882617e-01
 H  1.27375769388952e+00  4.72086117606617e+00  2.16264874659146e+00    -1.65170407246068e+00  9.80669459973812e-01 -2.43045749457027e+00
 H  2.83678020472376e+00  1.34218757523338e+00  3.70134475936033e+00    -3.12137851407524e+00  1.14213194357133e+00  2.65234242966648e-01
 O  4.19582335863820e+00  3.77608884425891e+00  3.85396133859340e+00    -2.28655855991775e-01 -5.98036233274975e-01  5.87781576920397e-01
 H  6.35393746693957e+00  4.93065157913157e+00  9.41520688405853e+00     1.77043753582735e+00 -1.08724997817730e+00  1.06876040784770e+00
 H  6.41019381309289e+00  1.82005539846305e+00  1.77730919713388e+00     1.98906136260140e+00 -1.09951474308756e+00 -8.22595076174807e-01
 O  4.52442607649033e+00  8.06844771881842e+00  2.29878807944986e+00     9.69805887927129e-01 -4.14618602169921e-03  8.72898886979865e-01
 H  1.68482483485120e+00  8.45515778480354e+00  8.66789327637685e+00    -1.14673994960280e+00  4.69957836028673e+00  3.69131959815292e+00
 H  3.53840253980778e+00  6.82494071776261e+00  4.76336350291806e+00     1.70005005500800e+00 -8.96613410922867e-01 -1.43302792924425e+00
 O  4.61296810146875e+00  7.62229706522601e+00  7.77088010910583e+00    -3.21501296213905e-02  2.58225290067016e-02 -2.50542851412076e-01
 H  2.04229931363122e+00 -4.08761109631538e-01  2.71172838858901e+00     3.03679137912822e+00 -3.26027650263927e+00 -1.03610593092621e+00
 H  4.16287255068544e+00  8.27557347675210e+00  3.20714431590247e+00     7.23805576270133e-01 -7.69488095895755e-01  1.21801196906933e+00
 O  4.50074838438690e+00  1.00453825076536e+01  7.19269628985901e+00    -3.90751031247247e-01 -2.36935616344502e-02 -4.44580835902096e-01
 H  4.94313419880324e-01  1.55671153343548e+00  6.16964237963473e-02    -1.26603641803663e+00 -2.65611658967725e-01  2.51867626407254e+00
 H  7.28872067731743e+00  8.99439023326942e+00 -2.11000965722766e-01    -7.88739169933694e-01 -1.24423375637825e+00 -2.21289387240111e+00
 O  7.86997971710695e+00  3.70050550033663e+00 -1.18315820537540e-01     1.37613194170133e+00 -3.17455191921438e-01 -8.40422012092573e-01
 H  5.82898772220964e-01  2.44140443328368e+00  4.05746611599333e+00     2.46159748069703e-01 -5.40205054838773e-01  5.30371909990570e-01
 H  7.07758282804553e+00  8.86860127798833e+00  2.93903021969849e+00    -1.99863569969336e+00 -2.64633783440606e+00 -6.85034763179398e-01
 O  8.21972194874490e+00  6.01546743215511e+00  6.83329734966623e+00     2.82309976350813e-01 -1.22146575025147e-01  6.17486091827074e-01
 H  4.32297766905855e+00  1.09467498431219e+01  7.44675019493420e+00    -1.20760904085953e-01 -4.89567927438535e-01  5.49244544398499e-01
 H -1.41275689502483e+00  5.26475888380807e+00  3.60179188552718e+00    -5.13884165603415e-01  1.23732470311429e-01 -8.22295607638729e-01
 O  5.59749926491070e+00  4.92744019325394e+00  8.68413152615312e+00     7.11236392010471e-01  3.13567894898718e-01 -5.95326505954771e-01
 H  7.87881850756670e+00  6.64682234078901e-01  5.73184115513856e+00     8.31509454472924e-01 -5.54445546498634e+00 -2.51172081602091e+00
 H  6.43459850328492e+00  3.16888694078148e+00  1.11929473936200e+00    -2.52997635666202e+00 -1.69610125820618e+00 -1.70876263710906e+00
 O  5.43413096516207e+00  1.49222583324977e+00  4.05946544689946e+00     1.07375207038341e+00 -2.75276315497070e-01 -2.32997543351605e-01
 H  1.82883011374115e-01  5.44147743160860e+00  3.97127972600363e+00    -1.50139581015215e-02 -1.54999310651665e+00 -2.16964145014563e+00
 H -4.11106870869613e-01  1.50677967668252e+00  3.51467025917455e+00    -2.57621796254696e+00 -3.77944441132050e+00 -1.29567263840091e+00
 O  2.54810761306112e+00 -6.01404593558209e-02  5.41547809959012e-01     8.23502183218782e-01 -1.17184820849117e-01 -1.02588473463474e-01
 H  4.30729984238292e+00  2.91046420738260e+00  1.43354732741129e+00    -9.41295005851412e-01  2.16557089553556e+00 -4.21174254336399e-01
 H  3.62836235502792e+00  3.16535650638956e+00  5.06913524879229e-01    -3.38778135469849e+00  1.73160494544199e+00  1.11618583074300e-01
 O  5.80940707091375e+00  6.23318211142233e+00  3.62913855863262e+00     2.07045315913475e-02  1.62762386235938e-01  5.11948423671031e-01
 H  7.57600902337593e+00 -5.41810573764102e-01  1.81152332318782e+00     2.63814729094824e-01  2.25985226036853e+00 -2.10417123648696e+00
 H  1.61013994012254e+00  8.29100440178137e+00  6.87976304471581e+00     1.75702833912441e+00  1.72024724780204e+00  3.40946013487583e-01
 O  1.50199414565751e+00  4.06449526441500e+00  1.67055993778288e+00    -1.27207273174406e-01 -4.17468951693230e-01  1.11306039673960e+00
 H  4.54265596958105e-01  1.86894669280690e+00  6.29296875174609e+00     4.59401638118708e-01  1.77712430659958e+00 -2.54259308428521e-01
 H  6.43685762778782e+00  1.92892215234082e+00  3.64067069655293e+00    -9.66326125084260e-01  5.22070516285846e+00 -3.19873210823995e+00
 O  7.51800296044722e+00  3.37034606125688e+00  5.23606004043127e+00    -5.04828354025305e-01  2.56698801268340e-01 -2.48643231445342e-01
 H  2.11016320176598e+00  9.43681746513879e-01  9.46906044589556e-01     1.87833756167022e+00 -1.77314545805519e+00 -3.02455392970313e-01
 H  2.64378379447744e+00  6.09074698227570e+00  5.52983734651296e+00     3.44044272058179e-01 -3.76085927841720e-02 -2.32329371649499e+00
 O  6.60038113091958e+00  2.92226891755594e+00  2.04298771254166e+00    -1.20341392045527e+00  2.76203860060062e-01 -7.35936284421340e-01
 H  4.19421935731514e+00  4.08606465947626e+00  4.69183582350746e+00     8.12812337493942e-01 -2.26388955386509e+00  1.52955800909838e-01
 H  6.30060893926407e+00  7.04866688386760e+00  3.63237694274807e+00    -2.88961119530922e+00  3.80085380199938e-03  1.13442706580938e+00
