   96
 8.60913090000000e+00  8.60913090000000e+00  8.60913090000000e+00
 O  1.72968905291148e+00  7.25934772304838e+00  7.05488489083608e+00    -3.46468259692591e-01 -2.50619680015527e-01  2.80088319559167e-01
 H  1.05726774317976e+00  5.35324428496435e+00  4.41032849378139e-01    -1.06519296564666e+00 -8.49785912587885e-01  2.40792972313438e+00
 H  2.36158710230543e+00  5.83590991840505e+00  7.21070211377069e+00     1.07551076648733e-01 -2.25674666791244e+00 -8.84255030763252e-01
 O  9.37174376018411e+00  7.59832069781938e+00  4.79886869651881e+00     9.69620729479531e-02 -8.29903974103755e-01 -5.40964552589828e-01
 H  2.48335797589975e+00  4.20039063465252e+00  7.00390888733965e+00     1.74960956231563e-02  1.79346754578046e+00  5.92599583898082e-01
 H  9.06660645955889e+00  6.06454222847841e+00  6.31633528617974e+00     5.87841840345398e-01  2.26782043060740e+00  4.29368990655541e-01
 O  2.80592491919172e+00  8.38510742107697e+00  3.21009557527093e+00     5.44818289476216e-01  1.42344887564830e-02 -2.57782330070586e-02
 H -1.76965112649522e+00  9.46135485708808e-01  6.83133763106872e+00    -6.57808459328113e-01  8.05732037753299e-02 -2.55680260237049e+00
 H  5.03472957722757e+00  7.47983054793269e+00  8.58412074699230e+00     3.34770018369835e-01  1.74104039563950e+00 -1.23276105322953e+00
 O  1.56569986537206e-01  2.19625942339981e+00  3.23732460657185e+00    -5.74851017375598e-01  4.71324748349098e-02  5.37467401942924e-01
 H  4.70286149177120e+00  4.95358620055594e+00  9.97971412248617e+00     3.32642106789611e+00  1.26135948807262e+00  5.95286926218025e-01
 H  3.97552855892958e+00  9.14393875040177e+00  7.61592671440077e+00     2.26342442397608e+00  4.90649006187153e-01  1.15269652947702e+00
 O  2.87167574983333e+00  5.02693787652744e+00  7.37107904984743e+00    -4.59703175621569e-01  4.22799828325875e-01 -4.91774067959640e-01
 H  3.52358816067539e+00  4.50711554047995e+00  3.52852678200742e+00    -1.52150080454925e-01 -1.30241366079259e+00 -3.59389170862223e+00
 H -5.04079760837240e-01  6.74633798148843e+00  4.79214785363628e-01    -1.30902834386495e+00 -3.40149719030634e+00  2.81824567335267e+00
 O  7.48216993739285e+00  1.82141071565247e+00  7.37880500615584e+00    -3.75905309422576e-01  2.33696464113602e-01 -4.46200739477213e-01
 H -3.75890217277161e-01  4.27702857195218e+00  5.56488327618447e-01    -1.09926139054879e+00 -3.31593773303016e-01  1.65978940690846e+00
 H  5.36495494812760e+00  3.12721707691650e+00  6.29210447563804e+00     1.07303923187963e+00 -9.06743907090327e-01 -2.74492512332696e-01
 O -5.01621831336397e-01  5.26864272792906e+00  3.28303942437441e+00     8.08696315695470e-02  7.57572353871533e-01 -9.23546196186461e-02
 H  6.21844812869623e+00  4.39636547018590e-01  4.82911045269433e+00    -2.16067338764528e+00 -1.42627012730966e+00 -2.72195454439916e+00
 H  4.84524875860824e+00  5.69601906738961e+00  2.55131720880075e+00    -1.81496991491280e+00  2.02438954038450e+00 -1.90492210532620e+00
 O  4.05648612986906e+00  5.40740192994158e+00  1.95534108796840e+00    -8.32738814877681e-01 -3.54521979832039e-01  9.92847242868931e-01
 H -1.02576109749670e+00  4.20255130116221e+00  5.64546914410577e+00    -1.85516100376630e+00 -1.64788183805250e-01  2.12544795454908e+00
 H  5.68642759567355e+00  6.55123850452887e+00  4.60302379104641e+00     8.90740684565624e-01  3.06451139132604e-01 -1.02038243924891e-01
 O  5.73391056840081e+00  1.01515163967953e+00  1.19951922713239e+00     4.66073816733350e-01 -3.46432989616304e-01  4.29798315890765e-01
 H  4.45388288822296e+00  2.78202545288321e+00  3.80928354169134e+00     4.40495735911314e-01  8.89123296829360e-01  2.23580654663364e+00
 H  2.17412468492181e+00  7.94943655253551e+00  4.03960553387262e+00     3.71099396720954e-01  1.11411524736456e+00 -7.24645611630023e-01
 O  2.91527650329078e+00  1.68920987715295e+00  4.58540926499684e+00    -4.67768379821842e-02  1.28512804762714e-01  8.02314397944403e-01
 H  6.62161372553345e+00  7.12834215103655e+00  8.65828786466466e+00     6.91233493116183e-01  1.06895291488442e+00  2.53496790818407e+00
 H  7.15977906874126e+00  6.13954764139413e+00  6.57159540523171e+00     2.71047366896259e+00  2.67071392289119e+00  2.82825944768156e+00
 O  3.36507597359136e+00  2.60855521943952e+00  1.18258922704310e+00    -5.13578695592120e-01  7.26663199147372e-02 -6.67043703111394e-01
 H  7.22804311090757e+00  3.51623647629677e+00  4.32897456037676e+00    -4.53009716384550e+00  1.46468189417141e-01 -1.96737839343306e+00
 H  8.69838507633833e+00  3.63966867731650e+00 -8.88638434684026e-01     1.31837611448451e+00  7.34882249866469e-02  6.06148960626272e-01
 O  9.17976352478427e+00  1.24653114995020e+00  1.05398575648909e+00    -3.25361593932622e-01  1.09890129999603e+00  3.30216824807427e-02
 H  9.87681198417441e+00  8.41909211755327e+00  5.16877219940514e+00    -1.25996677253434e+00 -1.36296951978706e+00  2.72409896838604e+00
 H  3.64456822131112e+00  7.22751886495245e+00  8.04556059910572e+00     1.50314280613978e+00 -1.06044852430281e+00 -5.36449929016457e-01
 O  7.82115642948014e+00  8.25302151725923e+00  2.74278881116474e+00    -3.93031849617324e-01 -9.83853490584411e-02 -1.43315665839988e-01
 H  9.85759863389793e-01  3.70225362117723e+00  9.23962667866688e-01    -9.18446575930321e-01 -3.53622050257230e+00 -3.66744266699713e+00
 H  8.59568809452462e+00 -1.58722344127533e+00  5.39998923340695e+00     1.33573881716632e+00 -6.77940541185424e-01 -2.37072269336412e+00
 O  5.01822750861069e+00  4.09709941711921e+00  6.29435894411563e+00     4.09374281264388e-01  1.08628125517977e+00 -2.35665693183359e-01
 H  4.99814971341252e+00  4.33190405081798e+00  7.26586782208458e+00    -2.38722600538106e+00  6.37645577073960e-01 -1.36462189266033e+00
 H  6.79896952668336e+00  2.36899025097443e+00  7.74142113213668e+00     1.41315151235942e+00  1.00652175541214e+00 -5.81536227468802e-02
 O  1.30127534236407e+00  1.32131886765277e+00  6.72492393435679e+00    -1.16918766383290e-01 -4.10291778179004e-01  3.19135271158095e-01
 H  3.82269468483396e+00  1.80424922261460e+00  5.06800116054663e+00     1.31984555344609e+00 -2.90616253130961e-01  2.58283719256024e+00
 H  5.33746339188626e+00  8.99608276653095e-01  3.20562561427970e+00     6.87602316028253e-01  6.87412299741832e-02  2.15821930565033e-01
 O  7.17086168654780e+00  7.90853747982786e+00  8.48016477678779e+00     8.05299199877082e-02  3.09930372359725e-01 -8.51870698709653e-03
 H  3.27071264664256e+00  5.91323211949680e+00  1.19581445713359e+00     1.30544820378275e+00  7.94835416155558e-01 -3.03091799491873e-01
 H  9.12090380139963e+00  2.66367468258138e+00  2.38373113148726e+00    -2.05225211485048e+00  5.72793182526940e-01 -3.35369073461858e+00
 O  3.49609817326957e-01  6.01218645167491e+00  5.76810188244357e-01    -4.09186124557844e-01 -5.60661835623172e-02 -5.02184893814416e-01
 H  5.36303017088526e+00  4.85608486759193e+00  5.95598327087225e+00     9.28860725248800e-01  3.02681782014585e+00 -2.02386243590360e+00
 H  5.35718501502932e+00  2.39874994244246e-01  1.53313052360251e+00    -5.49546772631222e-01 -2.54410925141409e+00  5.54527748358913e+00
 O  6.98687669948940e+00  2.13567982318096e-01  5.59302876288913e+00     3.08579453628915e-01 -6.64186751413519e-01 -1.80587733778217e-01
 H  3.48787620336485e+00 -5.86431780210547e-01  1.84585704970228e+00     7.53186361965078e-01  1.08751977385869e+00 -2.18391376107133e+00
 H  2.38887040514444e+00  2.29902158712869e+00  1.65704298891246e+00    -6.71365410180873e-01  1.24595562824459e-01 -3.25812074629217e+00
 O  3.32367392273046e+00  5.97523904663747e+00  4.75749515408105e+00     9.07603355332193e-02 -7.00357853309882e-02  8.32949396882443e-01
 H  1.27375769388972e+00  4.72086117606595e+00  2.16264874659214e+00    -1.65170407246336e+00  9.80669459982830e-01 -2.43045749455796e+00
 H  2.83678020472154e+00  1.34218757523055e+00  3.70134475936174e+00    -3.12137851407813e+00  1.14213194356418e+00  2.65234242990009e-01
 O  4.19582335863820e+00  3.77608884425902e+00  3.85396133859330e+00    -2.28655855991359e-01 -5.98036233274524e-01  5.87781576920307e-01
 H  6.35393746693939e+00  4.93065157913342e+00  9.41520688405859e+00     1.77043753582686e+00 -1.08724997816587e+00  1.06876040785027e+00
 H  6.41019381309584e+00  1.82005539846838e+00  1.77730919714275e+00     1.98906136259153e+00 -1.09951474309356e+00 -8.22595076170429e-01
 O  4.52442607648948e+00  8.06844771881709e+00  2.29878807945037e+00     9.69805887921762e-01 -4.14618603054189e-03  8.72898886983259e-01
 H  1.68482483484982e+00  8.45515778480293e+00  8.66789327637663e+00    -1.14673994960518e+00  4.69957836030990e+00  3.69131959816691e+00
 H  3.53840253980794e+00  6.82494071776257e+00  4.76336350291859e+00     1.70005005500848e+00 -8.96613410931473e-01 -1.43302792923933e+00
 O  4.61296810146921e+00  7.62229706522574e+00  7.77088010910589e+00    -3.21501296201595e-02  2.58225290062424e-02 -2.50542851411945e-01
 H  2.04229931363086e+00 -4.08761109631176e-01  2.71172838858950e+00     3.03679137911837e+00 -3.26027650265286e+00 -1.03610593092495e+00
 H  4.16287255068703e+00  8.27557347675237e+00  3.20714431590291e+00     7.23805576283417e-01 -7.69488095890234e-01  1.21801196908766e+00
 O  4.50074838438697e+00  1.00453825076533e+01  7.19269628985940e+00    -3.90751031247664e-01 -2.36935616357437e-02 -4.44580835900838e-01
 H  4.94313419883103e-01  1.55671153343773e+00  6.16964237965573e-02    -1.26603641807669e+00 -2.65611658980247e-01  2.51867626406765e+00
 H  7.28872067732392e+00  8.99439023326918e+00 -2.11000965719866e-01    -7.88739169923698e-01 -1.24423375637126e+00 -2.21289387242139e+00
 O  7.86997971710724e+00  3.70050550033652e+00 -1.18315820538107e-01     1.37613194170674e+00 -3.17455191920010e-01 -8.40422012095838e-01
 H  5.82898772222149e-01  2.44140443328308e+00  4.05746611599282e+00     2.46159748064553e-01 -5.40205054850120e-01  5.30371909991047e-01
 H  7.07758282804514e+00  8.86860127798777e+00  2.93903021969851e+00    -1.99863569969229e+00 -2.64633783440723e+00 -6.85034763175117e-01
 O  8.21972194874489e+00  6.01546743215495e+00  6.83329734966607e+00     2.82309976350913e-01 -1.22146575025113e-01  6.17486091826494e-01
 H  4.32297766905976e+00  1.09467498431223e+01  7.44675019493165e+00    -1.20760904075216e-01 -4.89567927432830e-01  5.49244544389026e-01
 H -1.41275689502474e+00  5.26475888380839e+00  3.60179188552765e+00    -5.13884165600648e-01  1.23732470311913e-01 -8.22295607638100e-01
 O  5.59749926491071e+00  4.92744019325410e+00  8.68413152615309e+00     7.11236392010920e-01  3.13567894898754e-01 -5.95326505955174e-01
 H  7.87881850756899e+00  6.64682234075881e-01  5.73184115513393e+00     8.31509454500227e-01 -5.54445546503213e+00 -2.51172081608984e+00
 H  6.43459850328520e+00  3.16888694078167e+00  1.11929473936134e+00    -2.52997635666103e+00 -1.69610125820784e+00 -1.70876263710191e+00
 O  5.43413096516206e+00  1.49222583324976e+00  4.05946544689920e+00     1.07375207038282e+00 -2.75276315496940e-01 -2.32997543352738e-01
 H  1.82883011374242e-01  5.44147743160885e+00  3.97127972600343e+00    -1.50139581039042e-02 -1.54999310652114e+00 -2.16964145014173e+00
 H -4.11106870869902e-01  1.50677967668291e+00  3.51467025917519e+00    -2.57621796254830e+00 -3.77944441131932e+00 -1.29567263839122e+00
 O  2.54810761305988e+00 -6.01404593552593e-02  5.41547809959447e-01     8.23502183215119e-01 -1.17184820846150e-01 -1.02588473459883e-01
 H  4.30729984238092e+00  2.91046420738353e+00  1.43354732741318e+00    -9.41295005862154e-01  2.16557089551872e+00 -4.21174254303721e-01
 H  3.62836235502915e+00  3.16535650638899e+00  5.06913524878595e-01    -3.38778135472589e+00  1.73160494541660e+00  1.11618583065726e-01
 O  5.80940707091373e+00  6.23318211142228e+00  3.62913855863267e+00     2.07045315914511e-02  1.62762386235386e-01  5.11948423671412e-01
 H  7.57600902337600e+00 -5.41810573764097e-01  1.81152332318798e+00     2.63814729095311e-01  2.25985226036397e+00 -2.10417123648517e+00
 H  1.61013994012280e+00  8.29100440178121e+00  6.87976304471502e+00     1.75702833913203e+00  1.72024724780190e+00  3.40946013495332e-01
 O  1.50199414565748e+00  4.06449526441534e+00  1.67055993778285e+00    -1.27207273174903e-01 -4.17468951692913e-01  1.11306039673900e+00
 H  4.54265596954685e-01  1.86894669280466e+00  6.29296875175327e+00     4.59401638078411e-01  1.77712430661870e+00 -2.54259308407942e-01
 H  6.43685762778877e+00  1.92892215233803e+00  3.64067069655535e+00    -9.66326125071795e-01  5.22070516284601e+00 -3.19873210821539e+00
 O  7.51800296044727e+00  3.37034606125702e+00  5.23606004043121e+00    -5.04828354025962e-01  2.56698801269837e-01 -2.48643231445212e-01
 H  2.11016320177610e+00  9.43681746508325e-01  9.46906044594503e-01     1.87833756176085e+00 -1.77314545814431e+00 -3.02455393018413e-01
 H  2.64378379447747e+00  6.09074698227555e+00  5.52983734651309e+00     3.44044272058279e-01 -3.76085927844791e-02 -2.32329371649416e+00
 O  6.60038113092000e+00  2.92226891755636e+00  2.04298771254141e+00    -1.20341392045030e+00  2.76203860067539e-01 -7.35936284420577e-01
 H  4.19421935731508e+00  4.08606465947587e+00  4.69183582350755e+00     8.12812337492058e-01 -2.26388955387140e+00  1.52955800912197e-01
 H  6.30060893926406e+00  7.04866688386740e+00  3.63237694274773e+00    -2.88961119530950e+00  3.80085380432694e-03  1.13442706580915e+00
