6

O      6.6408      5.0305      3.8620
H      7.8679      4.7574      1.2444
H      8.1250      6.5759      3.5148
H      9.5706      5.1853      1.8472
C      8.3917      4.9563      2.3125
C      7.7074      5.6167      3.3823
6

O      6.6214      4.9994      3.8548
H      7.9054      4.7687      1.1432
H      8.1499      6.5122      3.5476
H      9.4870      5.1825      1.8101
C      8.4068      4.9786      2.3211
C      7.7039      5.6369      3.3905
6

O      6.6047      4.9693      3.8468
H      7.9444      4.7902      1.0718
H      8.1814      6.4926      3.6017
H      9.3858      5.1766      1.7965
C      8.4211      4.9998      2.3270
C      7.6989      5.6519      3.3968
6

O      6.5906      4.9408      3.8383
H      7.9830      4.8202      1.0353
H      8.2208      6.5174      3.6797
H      9.2873      5.1733      1.8030
C      8.4328      5.0198      2.3302
C      7.6926      5.6612      3.4007
6

O      6.5787      4.9147      3.8292
H      8.0186      4.8550      1.0350
H      8.2576      6.5653      3.7761
H      9.2248      5.1812      1.8149
C      8.4395      5.0381      2.3318
C      7.6861      5.6659      3.4023
6

O      6.5692      4.8912      3.8196
H      8.0481      4.8895      1.0698
H      8.2797      6.6135      3.8806
H      9.2291      5.2086      1.8153
C      8.4388      5.0545      2.3333
C      7.6803      5.6675      3.4021
6

O      6.5619      4.8707      3.8096
H      8.0682      4.9182      1.1360
H      8.2807      6.6482      3.9834
H      9.2969      5.2553      1.8085
C      8.4314      5.0690      2.3348
C      7.6756      5.6669      3.4008
6

O      6.5568      4.8532      3.7992
H      8.0766      4.9370      1.2288
H      8.2586      6.6621      4.0759
H      9.3940      5.3124      1.8166
C      8.4205      5.0820      2.3350
C      7.6722      5.6645      3.3989
6

O      6.5538      4.8388      3.7886
H      8.0712      4.9429      1.3386
H      8.2136      6.6505      4.1508
H      9.4884      5.3703      1.8550
C      8.4090      5.0943      2.3336
C      7.6698      5.6606      3.3970
6

O      6.5528      4.8274      3.7777
H      8.0467      4.9330      1.4414
H      8.1483      6.6113      4.2025
H      9.5593      5.4207      1.9280
C      8.3995      5.1064      2.3325
C      7.6683      5.6554      3.3955
6

O      6.5536      4.8186      3.7666
H      7.9928      4.9023      1.5019
H      8.0674      6.5454      4.2284
H      9.5949      5.4588      2.0324
C      8.3941      5.1190      2.3350
C      7.6671      5.6489      3.3947
6

O      6.5560      4.8122      3.7551
H      7.9065      4.8488      1.5083
H      7.9768      6.4562      4.2281
H      9.5904      5.4826      2.1598
C      8.3937      5.1327      2.3424
C      7.6658      5.6409      3.3950
6

O      6.5599      4.8077      3.7432
H      7.8043      4.7815      1.4869
H      7.8836      6.3502      4.2058
H      9.5480      5.4940      2.2985
C      8.3972      5.1469      2.3527
C      7.6639      5.6313      3.3964
