5

O      2.3436      6.2049      5.5427
H     -1.0123      6.0572      4.9518
H      0.7956      7.3219      5.0010
N     -0.1796      5.7318      5.3127
C      1.0352      6.2015      5.0272
5

O      2.3363      6.2013      5.5421
H     -1.0643      6.0595      4.9756
H      0.8733      7.2860      4.9558
N     -0.1560      5.7241      5.3156
C      1.0268      6.2009      5.0489
5

O      2.3275      6.1949      5.5411
H     -1.1097      6.0737      4.9952
H      0.9500      7.2641      4.8943
N     -0.1309      5.7124      5.3172
C      1.0162      6.2036      5.0722
5

O      2.3172      6.1858      5.5398
H     -1.1271      6.0911      5.0161
H      1.0162      7.2610      4.8193
N     -0.1070      5.6969      5.3172
C      1.0055      6.2096      5.0970
5

O      2.3052      6.1740      5.5385
H     -1.1065      6.1062      5.0389
H      1.0617      7.2728      4.7382
N     -0.0863      5.6778      5.3159
C      0.9967      6.2195      5.1230
5

O      2.2914      6.1599      5.5374
H     -1.0477      6.1161      5.0616
H      1.0770      7.2895      4.6621
N     -0.0698      5.6555      5.3139
C      0.9914      6.2340      5.1497
5

O      2.2758      6.1439      5.5368
H     -0.9593      6.1206      5.0814
H      1.0588      7.3038      4.5992
N     -0.0576      5.6300      5.3113
C      0.9900      6.2531      5.1769
5

O      2.2582      6.1265      5.5368
H     -0.8603      6.1239      5.0945
H      1.0092      7.3117      4.5528
N     -0.0483      5.6015      5.3085
C      0.9920      6.2762      5.2043
5

O      2.2391      6.1081      5.5374
H     -0.7763      6.1361      5.0963
H      0.9330      7.3115      4.5230
N     -0.0395      5.5702      5.3056
C      0.9962      6.3019      5.2319
5

O      2.2190      6.0894      5.5388
H     -0.7237      6.1662      5.0832
H      0.8359      7.3034      4.5094
N     -0.0294      5.5365      5.3026
C      1.0009      6.3286      5.2594
5

O      2.1983      6.0706      5.5410
H     -0.6995      6.2099      5.0569
H      0.7237      7.2887      4.5113
N     -0.0174      5.5021      5.2996
C      1.0046      6.3545      5.2865
5

O      2.1779      6.0524      5.5442
H     -0.6899      6.2502      5.0232
H      0.6027      7.2700      4.5269
N     -0.0045      5.4691      5.2960
C      1.0061      6.3783      5.3130
5

O      2.1581      6.0348      5.5485
H     -0.6838      6.2699      4.9880
H      0.4796      7.2514      4.5521
N      0.0084      5.4393      5.2918
C      1.0049      6.3987      5.3384
5

O      2.1391      6.0182      5.5537
H     -0.6768      6.2579      4.9558
H      0.3601      7.2395      4.5793
N      0.0205      5.4137      5.2868
C      1.0010      6.4150      5.3623
5

O      2.1212      6.0029      5.5599
H     -0.6687      6.2092      4.9289
H      0.2473      7.2411      4.6006
N      0.0315      5.3929      5.2809
C      0.9943      6.4266      5.3843
