6

O      2.7105      4.1707     -0.3651
O      3.4529      6.3301     -0.1068
H      4.8734      6.8174      1.8603
N      4.8398      5.8057      2.0182
C      4.4572      4.8885      1.1446
C      3.5742      5.0245     -0.1587
6

O      2.7221      4.1822     -0.3351
O      3.4540      6.3211     -0.1003
H      4.9456      6.6946      1.8021
N      4.8456      5.8077      1.9988
C      4.4563      4.8757      1.1455
C      3.5723      5.0381     -0.1890
6

O      2.7338      4.1934     -0.3064
O      3.4548      6.3126     -0.0934
H      5.0291      6.6301      1.7301
N      4.8485      5.8029      1.9761
C      4.4581      4.8654      1.1499
C      3.5698      5.0538     -0.2172
6

O      2.7452      4.2041     -0.2794
O      3.4552      6.3051     -0.0862
H      5.1329      6.6440      1.6358
N      4.8479      5.7902      1.9514
C      4.4623      4.8572      1.1577
C      3.5670      5.0709     -0.2433
6

O      2.7559      4.2136     -0.2542
O      3.4553      6.2994     -0.0788
H      5.2512      6.6936      1.5299
N      4.8449      5.7732      1.9246
C      4.4689      4.8504      1.1682
C      3.5645      5.0888     -0.2671
6

O      2.7661      4.2217     -0.2313
O      3.4551      6.2960     -0.0712
H      5.3675      6.7332      1.4289
N      4.8413      5.7563      1.8956
C      4.4774      4.8441      1.1806
C      3.5620      5.1071     -0.2888
6

O      2.7756      4.2283     -0.2109
O      3.4548      6.2953     -0.0634
H      5.4710      6.7460      1.3407
N      4.8385      5.7422      1.8649
C      4.4877      4.8370      1.1938
C      3.5592      5.1252     -0.3088
6

O      2.7848      4.2334     -0.1933
O      3.4545      6.2975     -0.0557
H      5.5581      6.7325      1.2664
N      4.8372      5.7324      1.8335
C      4.4997      4.8278      1.2067
C      3.5553      5.1428     -0.3275
6

O      2.7938      4.2371     -0.1786
O      3.4545      6.3027     -0.0481
H      5.6284      6.6977      1.2050
N      4.8381      5.7282      1.8024
C      4.5133      4.8153      1.2184
C      3.5498      5.1596     -0.3457
6

O      2.8029      4.2396     -0.1670
O      3.4548      6.3109     -0.0407
H      5.6811      6.6453      1.1555
N      4.8415      5.7305      1.7723
C      4.5282      4.7984      1.2290
C      3.5424      5.1757     -0.3640
