5

O      0.7737      2.7679      1.9795
O      2.0910      3.9662      0.6908
H      1.5722      5.0658      0.4727
C      1.3344      3.8291      1.8785
C      1.3835      4.8518      3.2017
5

O      0.7758      2.7797      1.9723
O      2.1016      3.9524      0.6956
H      1.5702      5.0046      0.4635
C      1.3524      3.8581      1.8560
C      1.3804      4.8429      3.2359
5

O      0.7779      2.7920      1.9654
O      2.1118      3.9402      0.6993
H      1.5729      4.9398      0.4529
C      1.3701      3.8867      1.8365
C      1.3723      4.8298      3.2645
5

O      0.7801      2.8052      1.9585
O      2.1218      3.9294      0.7016
H      1.5777      4.8776      0.4434
C      1.3866      3.9139      1.8210
C      1.3605      4.8128      3.2869
5

O      0.7827      2.8198      1.9516
O      2.1321      3.9199      0.7021
H      1.5820      4.8240      0.4369
C      1.4010      3.9391      1.8103
C      1.3464      4.7924      3.3027
5

O      0.7856      2.8358      1.9449
O      2.1430      3.9117      0.7006
H      1.5850      4.7832      0.4334
C      1.4127      3.9618      1.8050
C      1.3314      4.7694      3.3112
5

O      0.7888      2.8533      1.9385
O      2.1545      3.9047      0.6972
H      1.5869      4.7565      0.4315
C      1.4213      3.9817      1.8054
C      1.3171      4.7443      3.3121
5

O      0.7918      2.8720      1.9328
O      2.1666      3.8989      0.6920
H      1.5882      4.7421      0.4286
C      1.4270      3.9988      1.8112
C      1.3054      4.7176      3.3056
5

O      0.7945      2.8917      1.9279
O      2.1787      3.8946      0.6852
H      1.5899      4.7365      0.4220
C      1.4300      4.0134      1.8218
C      1.2974      4.6898      3.2917
5

O      0.7960      2.9118      1.9236
O      2.1907      3.8919      0.6773
H      1.5928      4.7356      0.4098
C      1.4309      4.0257      1.8364
C      1.2940      4.6612      3.2711
5

O      0.7957      2.9315      1.9200
O      2.2019      3.8910      0.6685
H      1.5973      4.7365      0.3910
C      1.4304      4.0363      1.8541
C      1.2953      4.6325      3.2442
5

O      0.7930      2.9503      1.9175
O      2.2122      3.8918      0.6594
H      1.6030      4.7370      0.3663
C      1.4292      4.0456      1.8738
C      1.3013      4.6042      3.2121
5

O      0.7878      2.9681      1.9169
O      2.2215      3.8945      0.6502
H      1.6092      4.7360      0.3375
C      1.4281      4.0538      1.8939
C      1.3113      4.5778      3.1765
5

O      0.7803      2.9859      1.9192
O      2.2294      3.8988      0.6412
H      1.6148      4.7323      0.3056
C      1.4277      4.0603      1.9125
C      1.3247      4.5553      3.1404
5

O      0.7704      3.0038      1.9241
O      2.2360      3.9047      0.6325
H      1.6185      4.7252      0.2709
C      1.4286      4.0641      1.9268
C      1.3408      4.5387      3.1073
5

O      0.7571      3.0197      1.9300
O      2.2409      3.9120      0.6243
H      1.6192      4.7139      0.2331
C      1.4313      4.0642      1.9342
C      1.3590      4.5303      3.0810
