9

O      0.9200      6.8759      3.7421
O      3.2957      3.8199      4.2336
H      3.3332      6.8026      4.6249
H      4.4450      4.6582      1.4426
H      2.8977      4.0104      2.4341
N      3.8336      4.2060      2.2173
N      3.1486      6.1048      3.7735
C      1.8520      6.1822      3.1539
C      3.9797      5.0403      3.4182
9

O      0.9295      6.8644      3.7371
O      3.3068      3.8066      4.2274
H      3.2437      6.6753      4.5305
H      4.5578      4.5972      1.3826
H      2.8750      4.0658      2.4253
N      3.8511      4.1957      2.2048
N      3.1410      6.1089      3.7868
C      1.8633      6.1738      3.1596
C      3.9901      5.0618      3.4272
9

O      0.9395      6.8546      3.7337
O      3.3203      3.7944      4.2207
H      3.1638      6.5691      4.4700
H      4.6507      4.5365      1.3443
H      2.8401      4.1149      2.4028
N      3.8719      4.1883      2.1931
N      3.1349      6.1127      3.7945
C      1.8739      6.1634      3.1670
C      3.9994      5.0785      3.4388
9

O      0.9502      6.8470      3.7319
O      3.3354      3.7839      4.2136
H      3.0972      6.5362      4.5240
H      4.7196      4.4807      1.3362
H      2.8117      4.1579      2.3650
N      3.8946      4.1836      2.1824
N      3.1304      6.1128      3.7916
C      1.8830      6.1506      3.1763
C      4.0077      5.0898      3.4525
9

O      0.9613      6.8414      3.7318
O      3.3509      3.7760      4.2067
H      3.0396      6.5598      4.6741
H      4.7628      4.4345      1.3611
H      2.8051      4.1949      2.3120
N      3.9184      4.1815      2.1731
N      3.1285      6.1108      3.7795
C      1.8898      6.1350      3.1872
C      4.0148      5.0950      3.4675
9

O      0.9729      6.8379      3.7331
O      3.3659      3.7714      4.2006
H      2.9932      6.5894      4.8340
H      4.7802      4.4010      1.4174
H      2.8295      4.2261      2.2459
N      3.9424      4.1822      2.1653
N      3.1294      6.1103      3.7649
C      1.8937      6.1165      3.1998
C      4.0210      5.0937      3.4832
9

O      0.9848      6.8361      3.7359
O      3.3800      3.7705      4.1959
H      2.9604      6.6016      4.9564
H      4.7752      4.3818      1.4979
H      2.8864      4.2522      2.1684
N      3.9662      4.1855      2.1594
N      3.1332      6.1129      3.7512
C      1.8944      6.0952      3.2139
C      4.0265      5.0857      3.4993
