21

O     10.0888     -0.6833      3.3983
O      7.3072      0.2308      7.2110
O      7.2962      0.6558      3.0362
H     10.9076     -1.0796      3.3409
H      9.4128      1.2327      7.2297
H      7.5229      0.4455      8.2063
H      9.4724      1.0349      4.9187
H      3.6822      4.6709      4.9614
H      2.9977      2.9297      4.9383
H      8.5529      3.0349      6.2657
N      3.8891      3.4766      5.2233
N      8.5620     -2.2021      4.3994
C      9.4392     -0.8929      4.5738
C      4.8889      2.6857      4.5580
C      7.7342      1.0156      4.1677
C      8.7619      0.2796      5.1862
C      6.1429      2.8921      4.4527
C      7.9048      2.3525      5.9426
C      8.4600      1.0744      6.4224
C      9.1492     -3.2068      4.8899
C      7.4517      2.2197      4.7419
21

O     10.1044     -0.6880      3.3838
O      7.3362      0.2138      7.2167
O      7.3105      0.6699      3.0569
H     10.9025     -1.0419      3.3777
H      9.3224      1.2288      7.2298
H      7.5769      0.4932      8.2050
H      9.4949      1.0774      4.9822
H      3.7010      4.6607      4.9871
H      2.9384      2.9107      4.9703
H      8.5869      3.0175      6.2462
N      3.9185      3.4881      5.2291
N      8.5617     -2.2056      4.4197
C      9.4286     -0.9070      4.5877
C      4.8945      2.6871      4.5596
C      7.7309      1.0031      4.1526
C      8.7552      0.2823      5.1874
C      6.1324      2.8587      4.4346
C      7.9190      2.3620      5.9452
C      8.4612      1.0721      6.4415
C      9.1448     -3.2054      4.8860
C      7.4258      2.2021      4.7239
21

O     10.1160     -0.6878      3.3743
O      7.3656      0.2014      7.2209
O      7.3245      0.6838      3.0792
H     10.9487     -1.0288      3.4169
H      9.2184      1.2223      7.2133
H      7.6236      0.5432      8.2127
H      9.5365      1.1200      5.0377
H      3.7244      4.6047      5.0347
H      2.9045      2.9153      5.0240
H      8.6400      3.0397      6.2422
N      3.9458      3.4977      5.2345
N      8.5639     -2.2104      4.4417
C      9.4189     -0.9237      4.6052
C      4.8983      2.6897      4.5641
C      7.7292      0.9883      4.1364
C      8.7511      0.2890      5.1853
C      6.1250      2.8235      4.4173
C      7.9333      2.3679      5.9510
C      8.4615      1.0673      6.4622
C      9.1380     -3.2007      4.8770
C      7.3949      2.1878      4.7047
21

O     10.1247     -0.6833      3.3701
O      7.3958      0.1935      7.2243
O      7.3377      0.6965      3.1005
H     11.0284     -1.0303      3.4588
H      9.1216      1.2152      7.1967
H      7.6608      0.5911      8.2247
H      9.5895      1.1543      5.0835
H      3.7548      4.5143      5.0958
H      2.9020      2.9461      5.0966
H      8.7026      3.0880      6.2460
N      3.9704      3.5049      5.2393
N      8.5681     -2.2153      4.4650
C      9.4105     -0.9425      4.6258
C      4.8995      2.6940      4.5717
C      7.7304      0.9726      4.1221
C      8.7502      0.2997      5.1801
C      6.1210      2.7872      4.4007
C      7.9472      2.3707      5.9583
C      8.4593      1.0601      6.4824
C      9.1295     -3.1940      4.8642
C      7.3607      2.1770      4.6867
21

O     10.1325     -0.6757      3.3714
O      7.4265      0.1901      7.2273
O      7.3490      0.7066      3.1174
H     11.1044     -1.0297      3.5009
H      9.0614      1.2123      7.2075
H      7.6869      0.6325      8.2371
H      9.6476      1.1748      5.1171
H      3.7911      4.4198      5.1604
H      2.9328      3.0014      5.1828
H      8.7604      3.1450      6.2496
N      3.9920      3.5084      5.2436
N      8.5735     -2.2191      4.4886
C      9.4034     -0.9629      4.6492
C      4.8974      2.7002      4.5822
C      7.7361      0.9578      4.1141
C      8.7533      0.3144      5.1724
C      6.1197      2.7504      4.3848
C      7.9606      2.3713      5.9661
C      8.4523      1.0503      6.4994
C      9.1201     -3.1873      4.8487
C      7.3253      2.1696      4.6719
21

O     10.1410     -0.6661      3.3783
O      7.4575      0.1909      7.2302
O      7.3575      0.7132      3.1267
H     11.1530     -1.0177      3.5392
H      9.0544      1.2173      7.2618
H      7.7016      0.6648      8.2476
H      9.7055      1.1783      5.1368
H      3.8272      4.3727      5.2200
H      2.9947      3.0752      5.2752
H      8.8049      3.1999      6.2494
N      4.0111      3.5057      5.2478
N      8.5792     -2.2200      4.5119
C      9.3976     -0.9843      4.6748
C      4.8920      2.7082      4.5954
C      7.7475      0.9455      4.1165
C      8.7606      0.3323      5.1625
C      6.1195      2.7141      4.3692
C      7.9734      2.3704      5.9737
C      8.4398      1.0380      6.5114
C      9.1108     -3.1823      4.8315
C      7.2910      2.1649      4.6619
21

O     10.1504     -0.6552      3.3905
O      7.4884      0.1956      7.2333
O      7.3629      0.7158      3.1269
H     11.1663     -0.9927      3.5702
H      9.0879      1.2279      7.3436
H      7.7055      0.6861      8.2556
H      9.7572      1.1638      5.1422
H      3.8606      4.4065      5.2738
H      3.0758      3.1564      5.3691
H      8.8334      3.2490      6.2456
N      4.0283      3.4959      5.2518
N      8.5839     -2.2165      4.5342
C      9.3922     -1.0053      4.7011
C      4.8840      2.7178      4.6106
C      7.7648      0.9364      4.1312
C      8.7723      0.3527      5.1511
C      6.1184      2.6792      4.3538
C      7.9848      2.3685      5.9806
C      8.4234      1.0242      6.5192
C      9.1027     -3.1813      4.8138
C      7.2603      2.1617      4.6576
21

O     10.1607     -0.6436      3.4075
O      7.5185      0.2037      7.2366
O      7.3658      0.7144      3.1189
H     11.1455     -0.9579      3.5918
H      9.1378      1.2388      7.4241
H      7.7004      0.6961      8.2611
H      9.7976      1.1318      5.1343
H      3.8997      4.4966      5.3241
H      3.1499      3.2295      5.4629
H      8.8471      3.2929      6.2408
N      4.0443      3.4826      5.2556
N      8.5872     -2.2077      4.5552
C      9.3853     -1.0237      4.7253
C      4.8749      2.7280      4.6270
C      7.7870      0.9305      4.1570
C      8.7883      0.3748      5.1386
C      6.1137      2.6466      4.3384
C      7.9941      2.3657      5.9870
C      8.4058      1.0099      6.5249
C      9.0964     -3.1858      4.7964
C      7.2353      2.1584      4.6599
21

O     10.1710     -0.6317      3.4283
O      7.5474      0.2145      7.2405
O      7.3673      0.7097      3.1052
H     11.0995     -0.9194      3.6042
H      9.1864      1.2472      7.4855
H      7.6884      0.6954      8.2630
H      9.8230      1.0848      5.1149
H      3.9531      4.5941      5.3692
H      3.1871      3.2824      5.5609
H      8.8490      3.3341      6.2385
N      4.0599      3.4712      5.2594
N      8.5889     -2.1935      4.5751
C      9.3735     -1.0370      4.7442
C      4.8660      2.7378      4.6436
C      7.8122      0.9274      4.1899
C      8.8085      0.3976      5.1257
C      6.1037      2.6170      4.3229
C      8.0009      2.3620      5.9932
C      8.3892      0.9963      6.5294
C      9.0919     -3.1964      4.7800
C      7.2177      2.1538      4.6691
21

O     10.1799     -0.6197      3.4515
O      7.5747      0.2272      7.2451
O      7.3689      0.7027      3.0886
H     11.0484     -0.8859      3.6114
H      9.2235      1.2528      7.5218
H      7.6721      0.6851      8.2589
H      9.8327      1.0272      5.0858
H      4.0223      4.6676      5.4062
H      3.1812      3.3140      5.6656
H      8.8417      3.3746      6.2424
N      4.0748      3.4647      5.2635
N      8.5896     -2.1750      4.5943
C      9.3573     -1.0446      4.7579
C      4.8587      2.7461      4.6594
C      7.8377      0.9265      4.2258
C      8.8326      0.4197      5.1133
C      6.0875      2.5909      4.3075
C      8.0048      2.3574      5.9994
C      8.3752      0.9843      6.5328
C      9.0886     -3.2121      4.7646
C      7.2081      2.1469      4.6851
21

O     10.1853     -0.6073      3.4759
O      7.5996      0.2413      7.2506
O      7.3717      0.6943      3.0713
H     11.0233     -0.8687      3.6197
H      9.2421      1.2556      7.5319
H      7.6543      0.6670      8.2469
H      9.8307      0.9658      5.0496
H      4.1044      4.7059      5.4327
H      3.1541      3.3304      5.7699
H      8.8273      3.4138      6.2541
N      4.0872      3.4640      5.2690
N      8.5901     -2.1544      4.6134
C      9.3417     -1.0465      4.7694
C      4.8538      2.7523      4.6738
C      7.8614      0.9274      4.2607
C      8.8603      0.4401      5.1025
C      6.0661      2.5679      4.2922
C      8.0056      2.3517      6.0060
C      8.3651      0.9749      6.5350
C      9.0855     -3.2312      4.7505
C      7.2062      2.1373      4.7074
21

O     10.1858     -0.5946      3.5005
O      7.6214      0.2558      7.2570
O      7.3765      0.6854      3.0548
H     11.0441     -0.8750      3.6335
H      9.2386      1.2559      7.5173
H      7.6374      0.6431      8.2276
H      9.8275      0.9102      5.0082
H      4.1957      4.7058      5.4472
H      3.1308      3.3370      5.8624
H      8.8072      3.4489      6.2730
N      4.0951      3.4691      5.2770
N      8.5908     -2.1339      4.6325
C      9.3299     -1.0424      4.7801
C      4.8520      2.7558      4.6862
C      7.8811      0.9298      4.2921
C      8.8909      0.4572      5.0942
C      6.0410      2.5474      4.2774
C      8.0034      2.3452      6.0128
C      8.3600      0.9689      6.5354
C      9.0813     -3.2512      4.7376
C      7.2106      2.1254      4.7356
