20

O      7.4844     -0.7153      4.6674
O     10.4760     -1.0000      4.1054
O      8.4137     -0.7884      7.2350
O      8.7199      0.3065      3.1911
H     10.4524     -0.2160      3.0889
H      8.1636     -0.8586      6.3326
H      8.0767      0.9502      2.7515
H     10.0968     -1.2667      6.2681
H     10.0293      1.4195      4.7453
H      4.6762      4.3034      3.0059
H      6.6764     -0.5729      5.1451
N      5.0005      3.4326      2.5609
C     10.0236     -0.7352      5.2448
C      5.4949      2.8314      3.5967
C      8.1737      0.4109      4.4628
C      9.3502      0.5548      5.4147
C      6.2415      2.0837      4.3054
C      7.4652      1.5035      6.3007
C      8.6974      0.6804      6.7910
C      7.4681      1.7757      4.8464
20

O      7.5064     -0.7246      4.6849
O     10.4718     -1.0069      4.1135
O      8.4166     -0.7981      7.2407
O      8.7012      0.2962      3.1804
H     10.4636     -0.1639      3.0895
H      8.1898     -0.8216      6.4106
H      8.1007      0.9422      2.7463
H     10.0264     -1.2756      6.2309
H     10.0744      1.3541      4.7123
H      4.6829      4.3228      2.9430
H      6.7325     -0.6079      5.1583
N      5.0025      3.4404      2.5461
C     10.0270     -0.7663      5.2459
C      5.5141      2.8197      3.6042
C      8.1943      0.4269      4.4807
C      9.3382      0.5298      5.4138
C      6.2373      2.1067      4.3000
C      7.4763      1.4883      6.2779
C      8.7041      0.6755      6.8135
C      7.4631      1.7698      4.8508
