25

O      5.3878      2.5293      2.3747
O      7.6995      4.7185      5.0176
O      6.6256     -1.0014      4.0922
O      8.7722     -0.3095      7.6090
O      6.7749      0.6144      2.6865
H      7.3179      5.6469      5.2185
H      8.3419     -0.0574      4.5387
H      5.9135      1.0934      7.2258
H      7.1700      0.1856      1.9959
H      7.2227      4.2232      1.6908
H      8.4566      5.7591      3.4496
H      9.5544      0.1721      7.8834
H      9.7112     -0.9624      3.8962
H      6.3872     -1.7481      3.5009
H      4.8188      1.7963      2.5090
N      7.4992      4.1120      2.6321
C      9.3139     -1.3124      5.1701
C      6.6254      2.9755      2.8808
C      6.3547      0.4200      3.9046
C      8.8446     -0.0129      5.4858
C      7.6214      4.8966      3.6158
C      6.9618      2.4688      4.1557
C      6.7252      0.9698      6.4346
C      8.0899      0.5519      6.4972
C      6.5312      1.4316      4.9226
25

O      5.4187      2.5105      2.3483
O      7.6837      4.7340      5.0209
O      6.6267     -0.9966      4.0892
O      8.7597     -0.3243      7.6105
O      6.7913      0.6075      2.6805
H      7.3058      5.6642      5.2577
H      8.4328     -0.0560      4.4982
H      5.8815      1.1090      7.2138
H      7.1926      0.1849      1.9908
H      7.2036      4.2496      1.6593
H      8.4342      5.8057      3.4211
H      9.5981      0.2209      7.8605
H      9.7114     -0.9321      3.8874
H      6.4031     -1.7710      3.5416
H      4.7724      1.8090      2.5247
N      7.4815      4.1124      2.6209
C      9.3095     -1.3162      5.1595
C      6.6167      2.9723      2.9001
C      6.3428      0.4092      3.8886
C      8.8862     -0.0193      5.4918
C      7.6354      4.8742      3.5822
C      6.9619      2.4688      4.1681
C      6.7199      0.9643      6.3988
C      8.1010      0.5383      6.4754
C      6.5482      1.4086      4.9115
25

O      5.4511      2.4939      2.3204
O      7.6694      4.7495      5.0241
O      6.6271     -0.9910      4.0885
O      8.7470     -0.3372      7.6122
O      6.8069      0.6034      2.6745
H      7.2943      5.6733      5.2967
H      8.5207     -0.0352      4.4622
H      5.8598      1.1293      7.1887
H      7.2317      0.1475      1.9686
H      7.1907      4.2890      1.6000
H      8.3838      5.8359      3.4048
H      9.6256      0.2591      7.8260
H      9.7045     -0.9253      3.9139
H      6.4146     -1.7874      3.5695
H      4.7305      1.8138      2.5540
N      7.4598      4.1058      2.6074
C      9.3071     -1.3201      5.1443
C      6.6068      2.9675      2.9225
C      6.3316      0.3934      3.8748
C      8.9267     -0.0214      5.4951
C      7.6501      4.8595      3.5537
C      6.9595      2.4774      4.1844
C      6.7169      0.9595      6.3609
C      8.1112      0.5217      6.4550
C      6.5634      1.3809      4.9000
25

O      5.4840      2.4785      2.2912
O      7.6571      4.7648      5.0266
O      6.6269     -0.9847      4.0901
O      8.7349     -0.3473      7.6141
O      6.8222      0.6013      2.6674
H      7.2820      5.6794      5.3335
H      8.6046      0.0051      4.4363
H      5.8503      1.1515      7.1498
H      7.2767      0.0830      1.9462
H      7.1870      4.3341      1.5258
H      8.3077      5.8483      3.3995
H      9.6264      0.2772      7.7786
H      9.6939     -0.9438      3.9722
H      6.4210     -1.7981      3.5844
H      4.7045      1.8242      2.5933
N      7.4338      4.0921      2.5905
C      9.3094     -1.3241      5.1253
C      6.5958      2.9616      2.9472
C      6.3213      0.3731      3.8631
C      8.9659     -0.0192      5.4956
C      7.6655      4.8531      3.5312
C      6.9540      2.4937      4.2050
C      6.7165      0.9550      6.3217
C      8.1195      0.5023      6.4364
C      6.5766      1.3496      4.8877
25

O      5.5168      2.4635      2.2612
O      7.6470      4.7797      5.0283
O      6.6261     -0.9783      4.0939
O      8.7236     -0.3544      7.6157
O      6.8378      0.6003      2.6583
H      7.2676      5.6872      5.3680
H      8.6842      0.0632      4.4241
H      5.8537      1.1733      7.0975
H      7.3164      0.0032      1.9406
H      7.1932      4.3773      1.4516
H      8.2123      5.8457      3.4013
H      9.5989      0.2717      7.7207
H      9.6852     -0.9877      4.0553
H      6.4224     -1.8017      3.5874
H      4.7023      1.8477      2.6384
N      7.4037      4.0724      2.5702
C      9.3177     -1.3283      5.1031
C      6.5838      2.9551      2.9734
C      6.3121      0.3489      3.8533
C      9.0040     -0.0128      5.4933
C      7.6811      4.8542      3.5146
C      6.9452      2.5166      4.2300
C      6.7191      0.9504      6.2820
C      8.1255      0.4804      6.4196
C      6.5881      1.3158      4.8740
25

O      5.5490      2.4486      2.2310
O      7.6391      4.7943      5.0290
O      6.6247     -0.9722      4.0996
O      8.7128     -0.3582      7.6169
O      6.8538      0.5994      2.6469
H      7.2507      5.6994      5.4012
H      8.7597      0.1359      4.4263
H      5.8690      1.1928      7.0336
H      7.3431     -0.0823      1.9600
H      7.2069      4.4121      1.3888
H      8.1072      5.8369      3.4041
H      9.5487      0.2441      7.6579
H      9.6859     -1.0532      4.1499
H      6.4195     -1.7957      3.5809
H      4.7271      1.8870      2.6847
N      7.3699      4.0483      2.5476
C      9.3296     -1.3330      5.0784
C      6.5710      2.9486      3.0002
C      6.3044      0.3216      3.8449
C      9.0411     -0.0026      5.4885
C      7.6958      4.8606      3.5031
C      6.9330      2.5439      4.2593
C      6.7251      0.9453      6.2430
C      8.1286      0.4564      6.4049
C      6.5979      1.2810      4.8582
25

O      5.5802      2.4336      2.2012
O      7.6334      4.8085      5.0287
O      6.6226     -0.9671      4.1070
O      8.7017     -0.3590      7.6171
O      6.8703      0.5978      2.6333
H      7.2314      5.7158      5.4332
H      8.8321      0.2191      4.4407
H      5.8948      1.2088      6.9614
H      7.3531     -0.1655      2.0063
H      7.2249      4.4345      1.3450
H      8.0041      5.8382      3.4014
H      9.4887      0.2013      7.5963
H      9.7100     -1.1288      4.2230
H      6.4128     -1.7778      3.5670
H      4.7783      1.9407      2.7275
N      7.3334      4.0217      2.5242
C      9.3413     -1.3393      5.0531
C      6.5577      2.9425      3.0269
C      6.2984      0.2925      3.8374
C      9.0775      0.0105      5.4814
C      7.7083      4.8692      3.4956
C      6.9175      2.5733      4.2919
C      6.7348      0.9392      6.2058
C      8.1284      0.4306      6.3921
C      6.6059      1.2468      4.8399
25

O      5.6104      2.4184      2.1726
O      7.6300      4.8228      5.0272
O      6.6199     -0.9640      4.1158
O      8.6890     -0.3573      7.6161
O      6.8869      0.5945      2.6180
H      7.2109      5.7339      5.4642
H      8.9016      0.3099      4.4631
H      5.9281      1.2214      6.8855
H      7.3451     -0.2394      2.0770
H      7.2431      4.4421      1.3270
H      7.9108      5.8663      3.3883
H      9.4409      0.1569      7.5398
H      9.7771     -1.2008      4.2282
H      6.4025     -1.7473      3.5472
H      4.8515      2.0047      2.7620
N      7.2952      3.9942      2.5018
C      9.3494     -1.3483      5.0312
C      6.5443      2.9374      3.0523
C      6.2946      0.2630      3.8302
C      9.1131      0.0249      5.4723
C      7.7177      4.8766      3.4915
C      6.8986      2.6015      4.3262
C      6.7485      0.9317      6.1711
C      8.1248      0.4030      6.3814
C      6.6122      1.2145      4.8186
25

O      5.6398      2.4031      2.1458
O      7.6287      4.8372      5.0243
O      6.6167     -0.9633      4.1259
O      8.6730     -0.3542      7.6139
O      6.9034      0.5888      2.6017
H      7.1903      5.7497      5.4942
H      8.9685      0.4073      4.4884
H      5.9635      1.2316      6.8126
H      7.3209     -0.2990      2.1670
H      7.2580      4.4343      1.3391
H      7.8282      5.9229      3.3629
H      9.4283      0.1263      7.4871
H      9.8889     -1.2684      4.1609
H      6.3885     -1.7061      3.5224
H      4.9378      2.0722      2.7851
N      7.2561      3.9673      2.4816
C      9.3526     -1.3596      5.0134
C      6.5312      2.9337      3.0757
C      6.2929      0.2346      3.8229
C      9.1478      0.0395      5.4616
C      7.7242      4.8815      3.4901
C      6.8746      2.6240      4.3593
C      6.7667      0.9221      6.1396
C      8.1182      0.3738      6.3725
C      6.6172      1.1853      4.7943
25

O      5.6686      2.3880      2.1214
O      7.6294      4.8517      5.0197
O      6.6132     -0.9658      4.1372
O      8.6534     -0.3496      7.6106
O      6.9192      0.5801      2.5851
H      7.1715      5.7582      5.5229
H      9.0340      0.5088      4.5139
H      5.9947      1.2413      6.7498
H      7.2847     -0.3425      2.2678
H      7.2670      4.4107      1.3819
H      7.7546      5.9917      3.3277
H      9.4560      0.1116      7.4362
H     10.0154     -1.3377      4.0685
H      6.3708     -1.6580      3.4925
H      5.0247      2.1351      2.7976
N      7.2168      3.9416      2.4647
C      9.3527     -1.3721      4.9964
C      6.5188      2.9315      3.0962
C      6.2930      0.2086      3.8151
C      9.1813      0.0533      5.4499
C      7.7284      4.8843      3.4907
C      6.8430      2.6374      4.3886
C      6.7896      0.9100      6.1115
C      8.1090      0.3432      6.3654
C      6.6212      1.1600      4.7672
25

O      5.6972      2.3734      2.0993
O      7.6322      4.8662      5.0131
O      6.6095     -0.9718      4.1495
O      8.6312     -0.3428      7.6061
O      6.9340      0.5678      2.5689
H      7.1572      5.7554      5.5489
H      9.0999      0.6115      4.5399
H      6.0181      1.2518      6.7018
H      7.2432     -0.3728      2.3691
H      7.2685      4.3712      1.4500
H      7.6897      6.0542      3.2883
H      9.5052      0.1001      7.3902
H     10.1246     -1.4107      3.9939
H      6.3497     -1.6085      3.4577
H      5.1010      2.1876      2.8058
N      7.1780      3.9180      2.4519
C      9.3520     -1.3853      4.9775
C      6.5072      2.9307      3.1130
C      6.2946      0.1863      3.8066
C      9.2130      0.0653      5.4377
C      7.7309      4.8865      3.4927
C      6.8049      2.6430      4.4150
C      6.8171      0.8953      6.0866
C      8.0980      0.3112      6.3595
C      6.6243      1.1393      4.7377
25

O      5.7258      2.3593      2.0796
O      7.6369      4.8806      5.0044
O      6.6057     -0.9820      4.1627
O      8.6082     -0.3332      7.6001
O      6.9473      0.5521      2.5538
H      7.1495      5.7392      5.5715
H      9.1684      0.7133      4.5682
H      6.0343      1.2626      6.6692
H      7.2037     -0.3962      2.4621
H      7.2623      4.3185      1.5289
H      7.6355      6.0979      3.2504
H      9.5506      0.0778      7.3561
H     10.1986     -1.4869      3.9573
H      6.3266     -1.5614      3.4199
H      5.1553      2.2252      2.8158
N      7.1403      3.8965      2.4443
C      9.3519     -1.3990      4.9560
C      6.4964      2.9311      3.1255
C      6.2973      0.1683      3.7971
C      9.2424      0.0747      5.4255
C      7.7320      4.8890      3.4957
C      6.7642      2.6439      4.4407
C      6.8487      0.8779      6.0646
C      8.0861      0.2780      6.3543
C      6.6271      1.1236      4.7069
25

O      5.7542      2.3456      2.0625
O      7.6435      4.8948      4.9933
O      6.6015     -0.9964      4.1763
O      8.5852     -0.3206      7.5927
O      6.9589      0.5329      2.5401
H      7.1492      5.7094      5.5907
H      9.2408      0.8115      4.6022
H      6.0471      1.2714      6.6495
H      7.1708     -0.4194      2.5430
H      7.2503      4.2616      1.5926
H      7.5939      6.1150      3.2171
H      9.5757      0.0383      7.3390
H     10.2319     -1.5641      3.9620
H      6.3033     -1.5169      3.3836
H      5.1811      2.2452      2.8274
N      7.1042      3.8773      2.4436
C      9.3533     -1.4131      4.9320
C      6.4868      2.9323      3.1337
C      6.3007      0.1546      3.7863
C      9.2689      0.0813      5.4135
C      7.7321      4.8926      3.4994
C      6.7237      2.6416      4.4665
C      6.8829      0.8583      6.0454
C      8.0740      0.2440      6.3493
C      6.6297      1.1133      4.6760
25

O      5.7817      2.3320      2.0484
O      7.6520      4.9083      4.9798
O      6.5969     -1.0149      4.1896
O      8.5629     -0.3052      7.5841
O      6.9686      0.5103      2.5282
H      7.1555      5.6675      5.6068
H      9.3175      0.9024      4.6449
H      6.0618      1.2744      6.6385
H      7.1490     -0.4475      2.6076
H      7.2372      4.2121      1.6112
H      7.5656      6.1020      3.1891
H      9.5750     -0.0177      7.3397
H     10.2266     -1.6383      4.0018
H      6.2821     -1.4751      3.3546
H      5.1812      2.2477      2.8328
N      7.0701      3.8601      2.4514
C      9.3570     -1.4272      4.9061
C      6.4786      2.9337      3.1380
C      6.3049      0.1447      3.7740
C      9.2920      0.0850      5.4020
C      7.7314      4.8978      3.5038
C      6.6849      2.6364      4.4923
C      6.9181      0.8374      6.0283
C      8.0630      0.2092      6.3438
C      6.6325      1.1086      4.6465
25

O      5.8074      2.3182      2.0382
O      7.6623      4.9210      4.9639
O      6.5917     -1.0370      4.2023
O      8.5415     -0.2876      7.5748
O      6.9764      0.4843      2.5181
H      7.1668      5.6153      5.6203
H      9.3979      0.9799      4.6987
H      6.0828      1.2684      6.6330
H      7.1417     -0.4815      2.6514
H      7.2267      4.1727      1.5757
H      7.5504      6.0587      3.1665
H      9.5486     -0.0864      7.3560
H     10.1891     -1.7047      4.0659
H      6.2644     -1.4376      3.3373
H      5.1630      2.2339      2.8226
N      7.0387      3.8457      2.4679
C      9.3638     -1.4407      4.8795
C      6.4713      2.9340      3.1396
C      6.3094      0.1382      3.7605
C      9.3113      0.0858      5.3910
C      7.7300      4.9048      3.5088
C      6.6487      2.6285      4.5175
C      6.9523      0.8159      6.0128
C      8.0543      0.1738      6.3375
C      6.6359      1.1095      4.6197
25

O      5.8304      2.3035      2.0322
O      7.6743      4.9327      4.9458
O      6.5856     -1.0621      4.2140
O      8.5210     -0.2683      7.5653
O      6.9826      0.4544      2.5099
H      7.1805      5.5551      5.6317
H      9.4804      1.0368      4.7651
H      6.1131      1.2510      6.6303
H      7.1503     -0.5189      2.6716
H      7.2169      4.1342      1.5081
H      7.5471      5.9892      3.1482
H      9.5036     -0.1614      7.3827
H     10.1299     -1.7596      4.1401
H      6.2501     -1.4083      3.3338
H      5.1343      2.2051      2.7908
N      7.0115      3.8361      2.4908
C      9.3751     -1.4519      4.8538
C      6.4645      2.9321      3.1399
C      6.3140      0.1346      3.7462
C      9.3267      0.0838      5.3803
C      7.7282      4.9133      3.5146
C      6.6156      2.6180      4.5412
C      6.9836      0.7950      5.9982
C      8.0492      0.1377      6.3300
C      6.6402      1.1155      4.5967
25

O      5.8503      2.2875      2.0306
O      7.6882      4.9432      4.9257
O      6.5789     -1.0894      4.2246
O      8.5007     -0.2481      7.5562
O      6.9876      0.4206      2.5034
H      7.1939      5.4889      5.6411
H      9.5631      1.0674      4.8440
H      6.1538      1.2213      6.6291
H      7.1742     -0.5558      2.6681
H      7.2042      4.0877      1.4409
H      7.5532      5.9036      3.1302
H      9.4532     -0.2370      7.4138
H     10.0676     -1.8038      4.2035
H      6.2381     -1.3915      3.3430
H      5.1019      2.1630      2.7354
N      6.9899      3.8335      2.5172
C      9.3913     -1.4581      4.8311
C      6.4573      2.9265      3.1400
C      6.3188      0.1336      3.7317
C      9.3382      0.0789      5.3699
C      7.7260      4.9226      3.5210
C      6.5863      2.6048      4.5628
C      7.0107      0.7755      5.9838
C      8.0487      0.1010      6.3212
C      6.6456      1.1258      4.5782
25

O      5.9069      2.1720      2.1028
O      7.8042      4.9826      4.7922
O      6.5281     -1.2506      4.2681
O      8.3746     -0.1234      7.5294
O      7.0081      0.1552      2.4858
H      7.1711      5.0036      5.6589
H      9.9085      0.8584      5.2275
H      6.4513      0.8982      6.7313
H      7.4910     -0.7284      2.3794
H      7.0807      3.7304      1.6262
H      7.6016      5.8944      2.8254
H      9.2864     -0.6230      7.5764
H      8.5040     -2.1635      5.1424
H      6.1207     -1.6616      3.4455
H      4.9709      1.7159      2.1218
N      6.9794      3.9402      2.6897
C      9.4957     -1.4003      4.8115
C      6.3932      2.8218      3.1642
C      6.3497      0.1471      3.6639
C      9.3160     -0.0289      5.3117
C      7.7146      4.9235      3.5541
C      6.4459      2.4812      4.5869
C      7.0832      0.6920      5.8791
C      8.1410     -0.1134      6.2224
C      6.6930      1.1945      4.5669
25

O      5.9078      2.1517      2.1243
O      7.8268      4.9865      4.7762
O      6.5180     -1.2725      4.2719
O      8.3582     -0.1046      7.5297
O      7.0119      0.1057      2.4846
H      7.1668      4.9045      5.6305
H      9.9389      0.8093      5.2406
H      6.4745      0.8454      6.7798
H      7.5485     -0.7557      2.3314
H      7.0797      3.6974      1.7186
H      7.6233      5.9155      2.8154
H      9.2165     -0.6526      7.5993
H      8.4651     -2.0427      5.1367
H      6.0957     -1.7496      3.4689
H      4.9858      1.6346      2.0232
N      6.9915      3.9610      2.7215
C      9.5094     -1.3862      4.8211
C      6.3824      2.8046      3.1717
C      6.3553      0.1465      3.6588
C      9.2958     -0.0605      5.3024
C      7.7128      4.9180      3.5442
C      6.4139      2.4608      4.5665
C      7.0882      0.6787      5.8604
C      8.1633     -0.1412      6.1958
C      6.7027      1.1889      4.5790
25

O      5.9063      2.1311      2.1470
O      7.8495      4.9900      4.7643
O      6.5071     -1.2928      4.2744
O      8.3435     -0.0869      7.5310
O      7.0163      0.0559      2.4835
H      7.1767      4.8025      5.5801
H      9.9611      0.7577      5.2444
H      6.4937      0.7950      6.8245
H      7.5974     -0.7777      2.2958
H      7.0920      3.6807      1.7982
H      7.6516      5.9179      2.8369
H      9.1319     -0.6710      7.6222
H      8.4423     -1.9039      5.1166
H      6.0759     -1.8348      3.5032
H      5.0242      1.5647      1.9418
N      7.0057      3.9780      2.7555
C      9.5214     -1.3732      4.8321
C      6.3725      2.7908      3.1802
C      6.3613      0.1436      3.6557
C      9.2724     -0.0927      5.2928
C      7.7117      4.9126      3.5265
C      6.3826      2.4452      4.5445
C      7.0927      0.6640      5.8442
C      8.1835     -0.1648      6.1674
C      6.7124      1.1748      4.5933
25

O      5.9026      2.1100      2.1701
O      7.8720      4.9929      4.7565
O      6.4955     -1.3118      4.2758
O      8.3302     -0.0699      7.5328
O      7.0213      0.0061      2.4824
H      7.2042      4.6994      5.5057
H      9.9725      0.7018      5.2434
H      6.5120      0.7477      6.8576
H      7.6343     -0.7925      2.2766
H      7.1174      3.6788      1.8548
H      7.6846      5.9029      2.8857
H      9.0438     -0.6856      7.6473
H      8.4364     -1.7611      5.0852
H      6.0636     -1.9085      3.5493
H      5.0830      1.5070      1.8824
N      7.0209      3.9901      2.7919
C      9.5314     -1.3624      4.8435
C      6.3638      2.7812      3.1896
C      6.3678      0.1377      3.6545
C      9.2474     -0.1229      5.2823
C      7.7122      4.9075      3.5021
C      6.3529      2.4348      4.5231
C      7.0971      0.6475      5.8319
C      8.1998     -0.1838      6.1385
C      6.7216      1.1529      4.6088
25

O      5.8974      2.0886      2.1931
O      7.8941      4.9953      4.7520
O      6.4833     -1.3292      4.2763
O      8.3176     -0.0529      7.5349
O      7.0270     -0.0431      2.4815
H      7.2473      4.5972      5.4116
H      9.9711      0.6425      5.2418
H      6.5304      0.7047      6.8744
H      7.6585     -0.8003      2.2768
H      7.1544      3.6907      1.8850
H      7.7208      5.8770      2.9531
H      8.9654     -0.7075      7.6782
H      8.4447     -1.6294      5.0450
H      6.0580     -1.9647      3.6046
H      5.1550      1.4589      1.8470
N      7.0359      3.9963      2.8296
C      9.5395     -1.3555      4.8543
C      6.3567      2.7759      3.1995
C      6.3746      0.1284      3.6548
C      9.2225     -0.1482      5.2703
C      7.7153      4.9035      3.4734
C      6.3254      2.4284      4.5040
C      7.1012      0.6290      5.8245
C      8.2103     -0.1978      6.1111
C      6.7297      1.1254      4.6244
25

O      5.8912      2.0672      2.2156
O      7.9161      4.9973      4.7498
O      6.4709     -1.3451      4.2765
O      8.3055     -0.0356      7.5369
O      7.0330     -0.0914      2.4811
H      7.2996      4.4947      5.3069
H      9.9578      0.5832      5.2438
H      6.5490      0.6673      6.8735
H      7.6730     -0.8046      2.2984
H      7.2010      3.7170      1.8922
H      7.7604      5.8543      3.0260
H      8.9036     -0.7448      7.7177
H      8.4622     -1.5188      5.0006
H      6.0565     -2.0016      3.6639
H      5.2307      1.4148      1.8345
N      7.0493      3.9953      2.8670
C      9.5465     -1.3539      4.8632
C      6.3513      2.7751      3.2095
C      6.3819      0.1152      3.6568
C      9.1992     -0.1663      5.2555
C      7.7227      4.9009      3.4434
C      6.3006      2.4244      4.4886
C      7.1051      0.6083      5.8227
C      8.2132     -0.2071      6.0870
C      6.7358      1.0942      4.6387
25

O      5.8849      2.0464      2.2376
O      7.9379      4.9990      4.7486
O      6.4588     -1.3589      4.2771
O      8.2942     -0.0184      7.5391
O      7.0391     -0.1380      2.4814
H      7.3536      4.3880      5.2024
H      9.9371      0.5310      5.2528
H      6.5665      0.6369      6.8556
H      7.6851     -0.8121      2.3414
H      7.2538      3.7590      1.8851
H      7.8047      5.8529      3.0913
H      8.8534     -0.7935      7.7651
H      8.4779     -1.4400      4.9571
H      6.0538     -2.0230      3.7196
H      5.3011      1.3672      1.8409
N      7.0598      3.9860      2.9017
C      9.5531     -1.3589      4.8694
C      6.3476      2.7785      3.2191
C      6.3893      0.0981      3.6604
C      9.1785     -0.1758      5.2368
C      7.7358      4.9003      3.4154
C      6.2789      2.4211      4.4783
C      7.1084      0.5857      5.8269
C      8.2075     -0.2122      6.0672
C      6.7391      1.0617      4.6503
25

O      5.8791      2.0267      2.2592
O      7.9595      5.0003      4.7479
O      6.4476     -1.3700      4.2788
O      8.2847     -0.0019      7.5416
O      7.0445     -0.1822      2.4828
H      7.4071      4.2755      5.1044
H      9.9180      0.4950      5.2716
H      6.5805      0.6145      6.8248
H      7.7048     -0.8309      2.4032
H      7.3075      3.8152      1.8743
H      7.8515      5.8844      3.1390
H      8.8043     -0.8406      7.8150
H      8.4813     -1.4028      4.9164
H      6.0435     -2.0376      3.7627
H      5.3599      1.3089      1.8612
N      7.0667      3.9683      2.9318
C      9.5600     -1.3706      4.8726
C      6.3458      2.7856      3.2278
C      6.3970      0.0768      3.6654
C      9.1609     -0.1762      5.2135
C      7.7555      4.9018      3.3915
C      6.2606      2.4171      4.4742
C      7.1104      0.5615      5.8367
C      8.1935     -0.2135      6.0529
C      6.7394      1.0293      4.6584
