26

O      5.9434      1.7112      2.2072
O      7.2751     -1.5435      4.9447
O      9.4905     -1.2343      4.0603
O      8.7533      0.5083      7.4405
O      7.9044      0.0462      3.1166
H      9.1118     -2.1769      4.2039
H      8.2846      2.4533      6.6545
H      6.3860      1.8296      6.9041
H      8.1629     -0.3180      7.8489
H      5.4574      0.8736      4.7014
H     10.4531     -0.4094      5.9220
H      8.5319      0.6663      2.9184
H      6.9948      0.0435      6.7490
H      9.0127     -1.4006      6.4958
H      9.3358      1.1671      4.6289
H      4.9453      3.4176      2.3320
H      6.1199      2.8326      5.1665
N      5.0849      3.3009      3.2932
C      9.4565     -0.7590      5.5599
C      5.9287      2.3777      3.2451
C      7.4985     -0.0711      4.4362
C      8.7118      0.4021      5.3159
C      6.8482      2.3365      4.4806
C      6.7065      0.9395      6.4549
C      8.0111      1.3917      6.6172
C      6.3634      0.8773      4.9143
26

O      5.9489      1.7162      2.1965
O      7.2729     -1.5598      4.9329
O      9.4967     -1.2478      4.0575
O      8.7497      0.5082      7.4657
O      7.8901      0.0507      3.1179
H      9.0840     -2.2020      4.2431
H      8.3314      2.4587      6.6383
H      6.4046      1.7741      6.9300
H      8.1370     -0.3247      7.8053
H      5.4699      0.9344      4.6999
H     10.4513     -0.4277      5.8676
H      8.4907      0.6939      2.9027
H      7.0013      0.0230      6.7792
H      9.0358     -1.3711      6.5005
H      9.4011      1.2378      4.5897
H      4.9833      3.3554      2.3301
H      6.0983      2.9329      5.1635
N      5.0715      3.3088      3.2958
C      9.4345     -0.7730      5.5835
C      5.9286      2.3855      3.2415
C      7.4909     -0.0673      4.4393
C      8.7262      0.4047      5.2943
C      6.8472      2.3495      4.4836
C      6.7156      0.9334      6.4500
C      8.0280      1.3871      6.6510
C      6.3489      0.8718      4.9031
26

O      5.9560      1.7195      2.1889
O      7.2706     -1.5742      4.9214
O      9.5026     -1.2624      4.0560
O      8.7455      0.5074      7.4936
O      7.8737      0.0533      3.1187
H      9.0579     -2.2026      4.2709
H      8.3800      2.4615      6.6258
H      6.4011      1.7339      6.9723
H      8.1267     -0.3000      7.7585
H      5.3868      0.9934      4.6777
H     10.4455     -0.4556      5.8115
H      8.4836      0.7496      2.8864
H      6.9940     -0.0283      6.8234
H      9.0688     -1.3310      6.4701
H      9.4555      1.2838      4.5681
H      5.0198      3.2988      2.3100
H      6.0953      3.0298      5.1532
N      5.0569      3.3180      3.2990
C      9.4151     -0.7877      5.6065
C      5.9313      2.3927      3.2411
C      7.4841     -0.0637      4.4454
C      8.7381      0.4129      5.2697
C      6.8465      2.3582      4.4823
C      6.7231      0.9275      6.4420
C      8.0497      1.3807      6.6810
C      6.3456      0.8680      4.8957
26

O      5.9648      1.7214      2.1846
O      7.2679     -1.5867      4.9104
O      9.5083     -1.2781      4.0561
O      8.7409      0.5058      7.5238
O      7.8562      0.0552      3.1184
H      9.0334     -2.1787      4.2857
H      8.4279      2.4582      6.6186
H      6.3763      1.7090      7.0288
H      8.1299     -0.2513      7.7134
H      5.2598      1.0477      4.6475
H     10.4376     -0.4924      5.7584
H      8.4922      0.8143      2.8756
H      6.9663     -0.0918      6.8721
H      9.1023     -1.2937      6.4235
H      9.4925      1.2995      4.5660
H      5.0529      3.2514      2.2797
H      6.1157      3.1186      5.1353
N      5.0418      3.3278      3.3020
C      9.3989     -0.8016      5.6267
C      5.9364      2.3998      3.2435
C      7.4782     -0.0604      4.4539
C      8.7479      0.4258      5.2428
C      6.8455      2.3629      4.4771
C      6.7300      0.9205      6.4319
C      8.0757      1.3732      6.7067
C      6.3489      0.8664      4.8913
26

O      5.9753      1.7222      2.1836
O      7.2649     -1.5973      4.9001
O      9.5134     -1.2944      4.0577
O      8.7366      0.5043      7.5559
O      7.8386      0.0574      3.1168
H      9.0082     -2.1348      4.2866
H      8.4732      2.4461      6.6182
H      6.3352      1.6908      7.0906
H      8.1371     -0.1963      7.6761
H      5.1393      1.0913      4.6212
H     10.4302     -0.5367      5.7124
H      8.4993      0.8686      2.8754
H      6.9152     -0.1517      6.9159
H      9.1213     -1.2815      6.3956
H      9.5091      1.2835      4.5831
H      5.0808      3.2172      2.2525
H      6.1620      3.1971      5.1121
N      5.0277      3.3375      3.3040
C      9.3869     -0.8121      5.6408
C      5.9434      2.4071      3.2485
C      7.4735     -0.0574      4.4641
C      8.7559      0.4424      5.2147
C      6.8434      2.3639      4.4688
C      6.7368      0.9121      6.4215
C      8.1049      1.3652      6.7273
C      6.3545      0.8676      4.8894
26

O      5.9875      1.7221      2.1857
O      7.2615     -1.6059      4.8905
O      9.5183     -1.3105      4.0607
O      8.7336      0.5040      7.5891
O      7.8216      0.0605      3.1138
H      8.9770     -2.0795      4.2735
H      8.5138      2.4233      6.6251
H      6.2858      1.6702      7.1458
H      8.1311     -0.1597      7.6517
H      5.0478      1.1209      4.6035
H     10.4263     -0.5862      5.6765
H      8.4953      0.9012      2.8876
H      6.8438     -0.1967      6.9483
H      9.1152     -1.3120      6.4142
H      9.5039      1.2392      4.6162
H      5.1020      3.1997      2.2392
H      6.2335      3.2649      5.0872
N      5.0158      3.3464      3.3042
C      9.3798     -0.8170      5.6462
C      5.9519      2.4148      3.2553
C      7.4699     -0.0547      4.4755
C      8.7624      0.4614      5.1864
C      6.8375      2.3622      4.4588
C      6.7438      0.9029      6.4123
C      8.1363      1.3569      6.7424
C      6.3603      0.8720      4.8898
26

O      6.1496      1.3447      2.3953
O      7.2206     -1.4288      5.3130
O      9.0524     -1.3307      3.8386
O      8.2440      0.4094      8.0786
O      7.2875     -0.3764      3.3984
H      9.4782     -2.3055      3.2915
H      8.5013      2.2955      6.9086
H      6.3528      2.3705      6.7796
H      7.9375     -0.5059      8.1179
H      5.6765      0.6448      4.3398
H     10.7963     -1.0623      4.9127
H      7.6930      0.3224      2.8153
H      6.5047      0.6376      7.3615
H      9.7383     -1.1171      6.0853
H      9.0443      1.1450      4.9310
H      4.9111      2.9060      2.5138
H      6.3872      3.0757      5.0341
N      5.7398      3.4406      2.8827
C      9.7182     -0.9467      4.9543
C      6.5609      2.3953      3.0882
C      7.6738     -0.1114      4.9666
C      9.1267      0.3354      5.5401
C      6.9487      2.4516      4.5660
C      6.7072      1.3473      6.5312
C      8.2699      1.1768      6.7674
C      6.6853      0.9618      5.0119
26

O      6.1380      1.3295      2.4055
O      7.2368     -1.4230      5.3071
O      9.0525     -1.3510      3.8523
O      8.2341      0.4221      8.0775
O      7.2735     -0.3687      3.4087
H      9.4355     -2.3835      3.3324
H      8.5575      2.2736      6.9220
H      6.3876      2.3128      6.7796
H      7.9839     -0.4836      8.1251
H      5.7153      0.6495      4.3210
H     10.8237     -1.0858      4.9034
H      7.6962      0.2895      2.7785
H      6.5482      0.6191      7.3437
H      9.7190     -1.1230      6.1294
H      9.0471      1.2147      4.9744
H      4.9075      2.9230      2.5943
H      6.4041      3.1197      5.0260
N      5.7559      3.4445      2.8694
C      9.7250     -0.9369      4.9398
C      6.5768      2.3970      3.0692
C      7.6880     -0.1427      4.9710
C      9.1135      0.3357      5.5564
C      6.9715      2.4712      4.5610
C      6.7103      1.3421      6.5294
C      8.2568      1.1944      6.7714
C      6.6874      0.9717      5.0037
26

O      6.1276      1.3158      2.4172
O      7.2534     -1.4175      5.2999
O      9.0546     -1.3751      3.8634
O      8.2258      0.4388      8.0763
O      7.2599     -0.3606      3.4182
H      9.3868     -2.4261      3.3915
H      8.6086      2.2407      6.9360
H      6.4238      2.2620      6.7815
H      8.0198     -0.4777      8.1119
H      5.7788      0.6529      4.3176
H     10.8487     -1.1094      4.8867
H      7.6968      0.2568      2.7343
H      6.5730      0.6016      7.3185
H      9.6898     -1.1542      6.1576
H      9.0672      1.3004      4.9991
H      4.9107      2.9439      2.6767
H      6.4070      3.2029      5.0373
N      5.7704      3.4461      2.8560
C      9.7346     -0.9267      4.9305
C      6.5924      2.3976      3.0497
C      7.7001     -0.1738      4.9731
C      9.0950      0.3373      5.5706
C      6.9976      2.4844      4.5534
C      6.7153      1.3336      6.5266
C      8.2438      1.2101      6.7769
C      6.6876      0.9827      4.9983
26

O      6.1182      1.3041      2.4304
O      7.2700     -1.4128      5.2921
O      9.0583     -1.4027      3.8717
O      8.2191      0.4593      8.0750
O      7.2471     -0.3525      3.4262
H      9.3329     -2.4320      3.4677
H      8.6501      2.2024      6.9488
H      6.4524      2.2373      6.7901
H      8.0467     -0.4897      8.0790
H      5.8569      0.6572      4.3292
H     10.8671     -1.1311      4.8643
H      7.6930      0.2228      2.6863
H      6.5775      0.5826      7.2898
H      9.6533     -1.2068      6.1621
H      9.1026      1.3837      5.0140
H      4.9126      2.9646      2.7583
H      6.4115      3.3021      5.0535
N      5.7837      3.4468      2.8424
C      9.7469     -0.9167      4.9268
C      6.6080      2.3970      3.0301
C      7.7096     -0.2031      4.9731
C      9.0718      0.3411      5.5821
C      7.0200      2.4927      4.5424
C      6.7227      1.3210      6.5223
C      8.2311      1.2233      6.7838
C      6.6868      0.9945      4.9959
26

O      6.1101      1.2946      2.4447
O      7.2860     -1.4099      5.2841
O      9.0636     -1.4333      3.8773
O      8.2140      0.4829      8.0736
O      7.2353     -0.3446      3.4323
H      9.2750     -2.4034      3.5598
H      8.6803      2.1676      6.9591
H      6.4692      2.2457      6.8068
H      8.0690     -0.5092      8.0285
H      5.9351      0.6614      4.3507
H     10.8770     -1.1480      4.8374
H      7.6834      0.1868      2.6381
H      6.5616      0.5596      7.2609
H      9.6125     -1.2778      6.1378
H      9.1492      1.4503      5.0256
H      4.9078      2.9832      2.8381
H      6.4290      3.3974      5.0631
N      5.7961      3.4485      2.8279
C      9.7618     -0.9073      4.9284
C      6.6232      2.3951      3.0108
C      7.7165     -0.2293      4.9710
C      9.0445      0.3478      5.5902
C      7.0332      2.4970      4.5268
C      6.7325      1.3043      6.5160
C      8.2190      1.2332      6.7920
C      6.6863      1.0069      4.9971
26

O      6.1030      1.2875      2.4600
O      7.3012     -1.4093      5.2766
O      9.0701     -1.4654      3.8809
O      8.2103      0.5083      8.0722
O      7.2249     -0.3373      3.4360
H      9.2168     -2.3570      3.6627
H      8.6986      2.1450      6.9656
H      6.4756      2.2753      6.8283
H      8.0913     -0.5222      7.9636
H      5.9941      0.6616      4.3718
H     10.8784     -1.1575      4.8072
H      7.6674      0.1496      2.5923
H      6.5265      0.5319      7.2340
H      9.5712     -1.3637      6.0829
H      9.2023      1.4906      5.0381
H      4.8971      3.0008      2.9165
H      6.4630      3.4772      5.0607
N      5.8072      3.4525      2.8119
C      9.7785     -0.8989      4.9352
C      6.6380      2.3918      2.9920
C      7.7208     -0.2511      4.9669
C      9.0143      0.3576      5.5946
C      7.0395      2.4983      4.5086
C      6.7440      1.2853      6.5079
C      8.2077      1.2392      6.8012
C      6.6875      1.0205      5.0024
26

O      6.0970      1.2828      2.4761
O      7.3151     -1.4116      5.2704
O      9.0775     -1.4957      3.8833
O      8.2077      0.5343      8.0705
O      7.2163     -0.3306      3.4372
H      9.1651     -2.3386      3.7660
H      8.6977      2.1399      6.9668
H      6.4756      2.3069      6.8490
H      8.1171     -0.5191      7.8890
H      6.0171      0.6530      4.3818
H     10.8731     -1.1579      4.7747
H      7.6452      0.1132      2.5507
H      6.4764      0.5019      7.2083
H      9.5337     -1.4567      5.9991
H      9.2567      1.4994      5.0537
H      4.8866      3.0211      2.9928
H      6.5142      3.5364      5.0441
N      5.8165      3.4590      2.7943
C      9.7962     -0.8919      4.9466
C      6.6520      2.3872      2.9743
C      7.7227     -0.2675      4.9607
C      8.9822      0.3701      5.5955
C      7.0443      2.4976      4.4907
C      6.7561      1.2659      6.4987
C      8.1973      1.2410      6.8113
C      6.6917      1.0354      5.0125
26

O      6.0921      1.2807      2.4925
O      7.3273     -1.4158      5.2661
O      9.0856     -1.5207      3.8847
O      8.2064      0.5602      8.0685
O      7.2095     -0.3248      3.4363
H      9.1222     -2.4002      3.8656
H      8.6722      2.1549      6.9617
H      6.4724      2.3257      6.8643
H      8.1489     -0.4965      7.8098
H      6.0012      0.6361      4.3799
H     10.8645     -1.1491      4.7407
H      7.6178      0.0796      2.5147
H      6.4192      0.4769      7.1817
H      9.5042     -1.5463      5.8921
H      9.3069      1.4756      5.0735
H      4.8845      3.0477      3.0643
H      6.5818      3.5735      5.0127
N      5.8235      3.4679      2.7755
C      9.8138     -0.8864      4.9615
C      6.6647      2.3816      2.9579
C      7.7224     -0.2775      4.9521
C      8.9495      0.3847      5.5930
C      7.0503      2.4953      4.4741
C      6.7678      1.2476      6.4894
C      8.1880      1.2388      6.8217
C      6.6990      1.0516      5.0267
26

O      6.0882      1.2812      2.5090
O      7.3374     -1.4200      5.2644
O      9.0949     -1.5410      3.8847
O      8.2062      0.5852      8.0662
O      7.2050     -0.3200      3.4335
H      9.0807     -2.5215      3.9672
H      8.6266      2.1882      6.9501
H      6.4676      2.3239      6.8720
H      8.1877     -0.4556      7.7318
H      5.9577      0.6183      4.3761
H     10.8569     -1.1312      4.7052
H      7.5866      0.0505      2.4860
H      6.3625      0.4634      7.1507
H      9.4852     -1.6261      5.7707
H      9.3465      1.4220      5.0972
H      4.8987      3.0832      3.1281
H      6.6642      3.5889      4.9671
N      5.8280      3.4789      2.7560
C      9.8303     -0.8822      4.9791
C      6.6756      2.3752      2.9432
C      7.7199     -0.2807      4.9408
C      8.9171      0.4004      5.5877
C      7.0584      2.4917      4.4592
C      6.7780      1.2314      6.4809
C      8.1800      1.2331      6.8321
C      6.7082      1.0681      5.0432
26

O      6.0853      1.2844      2.5254
O      7.3457     -1.4225      5.2651
O      9.1054     -1.5602      3.8830
O      8.2071      0.6088      8.0636
O      7.2028     -0.3162      3.4296
H      9.0344     -2.6406      4.0690
H      8.5676      2.2342      6.9324
H      6.4616      2.2995      6.8713
H      8.2332     -0.4006      7.6609
H      5.9022      0.6081      4.3814
H     10.8541     -1.1039      4.6679
H      7.5533      0.0264      2.4670
H      6.3129      0.4659      7.1134
H      9.4768     -1.6951      5.6474
H      9.3695      1.3465      5.1231
H      4.9324      3.1281      3.1822
H      6.7580      3.5837      4.9090
N      5.8303      3.4909      2.7362
C      9.8449     -0.8791      4.9982
C      6.6842      2.3684      2.9305
C      7.7153     -0.2769      4.9266
C      8.8861      0.4163      5.5803
C      7.0689      2.4868      4.4459
C      6.7859      1.2177      6.4740
C      8.1737      1.2253      6.8419
C      6.7179      1.0842      5.0598
26

O      6.0835      1.2902      2.5413
O      7.3523     -1.4240      5.2678
O      9.1170     -1.5798      3.8798
O      8.2094      0.6303      8.0612
O      7.2030     -0.3135      3.4251
H      8.9819     -2.7217      4.1651
H      8.4962      2.2856      6.9094
H      6.4538      2.2545      6.8628
H      8.2841     -0.3358      7.6029
H      5.8473      0.6113      4.4022
H     10.8574     -1.0665      4.6284
H      7.5196      0.0067      2.4602
H      6.2734      0.4841      7.0709
H      9.4779     -1.7563      5.5358
H      9.3727      1.2622      5.1472
H      4.9829      3.1813      3.2264
H      6.8573      3.5599      4.8415
N      5.8310      3.5029      2.7171
C      9.8571     -0.8770      5.0176
C      6.6899      2.3617      2.9201
C      7.7089     -0.2663      4.9092
C      8.8573      0.4312      5.5713
C      7.0817      2.4805      4.4339
C      6.7910      1.2070      6.4696
C      8.1693      1.2165      6.8502
C      6.7269      1.0990      5.0746
26

O      6.0827      1.2984      2.5567
O      7.3575     -1.4263      5.2722
O      9.1293     -1.6004      3.8753
O      8.2130      0.6497      8.0594
O      7.2057     -0.3121      3.4205
H      8.9254     -2.7537      4.2531
H      8.4163      2.3321      6.8826
H      6.4430      2.1947      6.8482
H      8.3386     -0.2631      7.5612
H      5.8019      0.6300      4.4402
H     10.8649     -1.0178      4.5866
H      7.4877     -0.0093      2.4673
H      6.2426      0.5124      7.0275
H      9.4878     -1.8121      5.4483
H      9.3602      1.1886      5.1614
H      5.0415      3.2411      3.2634
H      6.9538      3.5230      4.7696
N      5.8312      3.5133      2.6994
C      9.8668     -0.8758      5.0367
C      6.6926      2.3553      2.9122
C      7.7008     -0.2494      4.8888
C      8.8310      0.4435      5.5617
C      7.0966      2.4725      4.4230
C      6.7929      1.1996      6.4680
C      8.1670      1.2079      6.8563
C      6.7345      1.1124      5.0859
26

O      6.0829      1.3087      2.5712
O      7.3612     -1.4299      5.2780
O      9.1421     -1.6218      3.8695
O      8.2181      0.6667      8.0585
O      7.2104     -0.3119      3.4163
H      8.8679     -2.7341      4.3315
H      8.3334      2.3650      6.8539
H      6.4268      2.1306      6.8308
H      8.3947     -0.1873      7.5383
H      5.7715      0.6642      4.4945
H     10.8720     -0.9571      4.5439
H      7.4607     -0.0216      2.4867
H      6.2153      0.5408      6.9895
H      9.5068     -1.8616      5.3925
H      9.3445      1.1481      5.1541
H      5.0960      3.3052      3.2993
H      7.0374      3.4838      4.6998
N      5.8319      3.5217      2.6832
C      9.8741     -0.8760      5.0550
C      6.6920      2.3495      2.9070
C      7.6909     -0.2273      4.8657
C      8.8067      0.4514      5.5528
C      7.1130      2.4621      4.4124
C      6.7919      1.1953      6.4694
C      8.1663      1.2007      6.8594
C      6.7401      1.1240      5.0928
26

O      6.1223      1.4231      2.5215
O      6.8400     -1.1599      5.5963
O      9.7588     -1.7486      3.7805
O      8.7430      0.1430      7.3687
O      7.0441     -0.5280      3.5356
H      6.9166     -2.2938      5.7551
H      9.1906      1.9827      6.5435
H      6.0865      1.9653      7.0631
H      7.7983      0.1806      7.9621
H      5.4770      1.0190      4.3364
H     10.5576     -0.0902      4.2599
H      6.6386      0.3178      6.8999
H      9.3094      1.1857      4.4337
H      6.5411     -1.1316      6.4955
H      8.2452      2.2511      5.0847
H      5.7319      4.0943      1.7343
H      6.8335      3.2204      5.0422
N      5.4797      3.6272      2.8447
C      9.9301     -0.8695      4.6287
C      6.1926      2.5641      3.0928
C      7.4549     -0.0835      4.7381
C      8.8384      0.2632      4.9673
C      7.0773      2.3085      4.5315
C      6.7369      1.3379      6.5083
C      8.5551      0.9999      6.3870
C      6.3601      0.9727      5.0015
26

O      6.1225      1.4412      2.5190
O      6.8391     -1.1558      5.5803
O      9.7633     -1.7329      3.7785
O      8.7534      0.1553      7.3648
O      7.0062     -0.5051      3.5316
H      6.9265     -2.2893      5.7529
H      9.2150      1.9981      6.5369
H      6.0910      2.0054      7.0543
H      7.8883      0.2081      7.9572
H      5.4779      1.0512      4.3376
H     10.5801     -0.0861      4.2297
H      6.6189      0.3151      6.8862
H      9.3491      1.1770      4.4764
H      6.5459     -1.1363      6.4052
H      8.1773      2.1439      5.0184
H      5.7101      4.0906      1.7613
H      6.8332      3.1725      4.9954
N      5.4941      3.6229      2.8515
C      9.9150     -0.8506      4.6392
C      6.2082      2.5474      3.0876
C      7.4222     -0.0852      4.7294
C      8.8716      0.2594      4.9766
C      7.0678      2.3265      4.5362
C      6.7271      1.3386      6.5163
C      8.5687      0.9818      6.3795
C      6.3884      0.9825      5.0152
26

O      6.1231      1.4605      2.5157
O      6.8397     -1.1557      5.5618
O      9.7654     -1.7201      3.7737
O      8.7621      0.1667      7.3638
O      6.9678     -0.4823      3.5248
H      6.9459     -2.2727      5.7376
H      9.2280      1.9975      6.5260
H      6.0953      2.0570      7.0515
H      7.9994      0.2349      7.9398
H      5.4812      1.0724      4.3544
H     10.6222     -0.0807      4.2006
H      6.5930      0.3201      6.8844
H      9.3684      1.1406      4.5254
H      6.5323     -1.1224      6.3695
H      8.0842      2.0492      4.9243
H      5.6820      4.0704      1.8195
H      6.8193      3.1465      4.9748
N      5.5111      3.6202      2.8575
C      9.9000     -0.8285      4.6530
C      6.2251      2.5296      3.0833
C      7.3875     -0.0853      4.7195
C      8.9025      0.2565      4.9876
C      7.0590      2.3411      4.5382
C      6.7181      1.3355      6.5222
C      8.5823      0.9662      6.3704
C      6.4186      0.9972      5.0307
26

O      6.1240      1.4798      2.5112
O      6.8421     -1.1595      5.5406
O      9.7647     -1.7098      3.7663
O      8.7709      0.1765      7.3648
O      6.9294     -0.4599      3.5152
H      6.9746     -2.2444      5.7096
H      9.2278      1.9801      6.5097
H      6.1034      2.1133      7.0514
H      8.1043      0.2635      7.9291
H      5.4888      1.0811      4.3895
H     10.6754     -0.0794      4.1797
H      6.5617      0.3305      6.8960
H      9.3706      1.0866      4.5745
H      6.4967     -1.0881      6.3966
H      7.9834      1.9727      4.8090
H      5.6508      4.0377      1.9005
H      6.7874      3.1644      4.9928
N      5.5302      3.6189      2.8629
C      9.8849     -0.8025      4.6666
C      6.2432      2.5120      3.0807
C      7.3523     -0.0836      4.7092
C      8.9293      0.2542      5.0001
C      7.0507      2.3501      4.5363
C      6.7095      1.3294      6.5263
C      8.5963      0.9531      6.3598
C      6.4490      1.0171      5.0477
