32

O      6.1478      1.4388      2.4487
O      8.7980      1.0016      2.3599
O      7.0153     -1.4404      5.4785
O      9.6046     -1.9422      3.9718
O      8.4853      0.6269      7.7919
O      7.5908     -0.6291      3.4476
H      7.5321     -2.2971      5.2189
H      8.6715      1.9880      6.4164
H      6.2264      2.3120      6.8466
H      9.3188      1.0017      3.0819
H      8.2009     -0.3576      7.4369
H      5.3240      1.0637      4.6026
H     10.5683     -0.3162      4.6342
H      8.1702      0.1522      2.7881
H      6.1640      0.5780      7.1190
H      9.8173     -1.7865      5.7161
H      9.4377      1.2509      5.0872
H      7.8088     -0.5926      5.8695
H      8.0060      1.8768      3.9899
H      9.1024      0.6970      1.6255
H      6.9584      4.2099      2.9842
H      5.9491      3.5100      1.7778
H      7.6289      3.1402      4.7458
N      5.9906      3.7814      2.7123
C      9.6059     -0.9205      4.6587
C      6.0554      2.4330      3.1517
C      7.3472     -0.1700      4.5943
C      8.6620      0.3533      5.0853
C      6.8995      2.3577      4.5280
C      6.7043      1.2651      6.4287
C      8.3144      0.9997      6.5412
C      6.3675      1.0260      5.0125
32

O      6.1516      1.4521      2.4585
O      8.7970      1.0052      2.3695
O      6.9940     -1.4408      5.4914
O      9.6104     -1.9487      3.9739
O      8.4778      0.6013      7.7560
O      7.5943     -0.6285      3.4487
H      7.5894     -2.2359      5.3015
H      8.6159      1.9715      6.4360
H      6.2689      2.3275      6.8035
H      9.3890      0.9798      3.0886
H      8.1739     -0.3196      7.4213
H      5.3665      1.0964      4.6784
H     10.5477     -0.2971      4.6273
H      8.1549      0.1183      2.8594
H      6.1457      0.6060      7.0932
H      9.7557     -1.8217      5.6500
H      9.4281      1.3449      5.0328
H      7.8115     -0.5667      5.8923
H      8.0226      1.8273      3.9879
H      9.0975      0.7208      1.6023
H      6.9018      4.1732      2.9377
H      5.8934      3.5248      1.8299
H      7.5790      3.2101      4.7312
N      5.9891      3.7732      2.7343
C      9.6296     -0.9223      4.6483
C      6.0531      2.4450      3.1454
C      7.3217     -0.1907      4.5738
C      8.6655      0.3647      5.0956
C      6.8694      2.3565      4.5314
C      6.7185      1.2491      6.4264
C      8.3198      0.9937      6.5330
C      6.3966      1.0194      5.0105
