27

O      5.6475      2.1491      3.0959
O      6.4290      4.9680      5.2371
O      6.4132     -1.0265      4.7841
O      9.1782     -1.6805      3.5433
O      9.3719      0.1277      7.4195
O      5.3907      5.7495      3.4127
O      7.1505      0.1921      3.0850
H      6.9927      1.5319      7.4506
H      6.6470      0.8372      2.7732
H      6.7526      4.0663      5.2957
H     10.1139     -0.1183      6.6317
H      5.3979      1.2675      4.8083
H     10.3104     -0.7460      4.4671
H      9.2541     -1.3360      2.5255
H      6.0538      0.0332      7.2801
H      9.4926     -1.8659      5.7158
H      6.0094     -1.0911      3.8659
N      7.2011      4.1641      3.3038
C      9.4384     -0.9951      4.8068
C      6.6414      2.7955      3.7195
C      7.1347      0.0989      4.3790
C      8.3897      0.0056      5.0973
C      6.3445      4.9724      4.0004
C      7.3221      2.4127      4.8209
C      6.9055      0.6283      6.8471
C      8.2758     -0.0941      6.7452
C      6.5371      1.2605      5.3023
