27

O      5.7413      2.3470      3.0234
O      6.6609      4.6805      5.5094
O      6.0157     -1.0127      4.2208
O      8.7064     -1.6525      3.5371
O      8.9573      0.3328      7.4284
O      5.3619      5.7484      3.3916
O      7.2032      0.2805      2.9088
H      9.0471      0.8025      5.2746
H      6.7919      1.5156      7.3973
H      8.2002      3.9593      3.2971
H      6.3082      3.6095      5.4792
H     10.0184      0.1282      7.4867
H      5.3960      0.9723      5.1898
H      8.4281     -0.8921      2.7524
H      5.8456     -0.1809      6.6303
H      9.3477     -2.1736      5.8893
H      5.6414     -0.8813      3.2770
N      7.0759      4.0307      3.1437
C      9.5559     -1.3400      4.9734
C      6.6952      2.7187      3.7616
C      7.2485     -0.1480      4.3912
C      8.6392     -0.1141      5.1927
C      6.6478      5.0463      3.9802
C      7.0514      2.4641      5.0628
C      6.7438      0.6697      6.6522
C      7.9670     -0.0178      6.5556
C      6.4714      1.1673      5.2398
27

O      5.7412      2.3506      3.0138
O      6.6712      4.6687      5.5201
O      6.0164     -1.0104      4.1994
O      8.6877     -1.6631      3.5398
O      8.9278      0.3411      7.4379
O      5.3491      5.7427      3.3843
O      7.2071      0.2984      2.9215
H      9.0092      0.8582      5.1921
H      6.7411      1.4955      7.4727
H      8.2448      3.9706      3.2866
H      6.2929      3.5909      5.4425
H      9.9469      0.1052      7.4821
H      5.3502      1.0110      5.1362
H      8.4368     -0.9259      2.7930
H      5.9034     -0.1638      6.6477
H      9.3212     -2.2033      5.8977
H      5.6557     -0.9076      3.2571
N      7.0678      4.0320      3.1284
C      9.5624     -1.3559      4.9885
C      6.6989      2.7216      3.7633
C      7.2366     -0.1522      4.3838
C      8.6516     -0.1254      5.1772
C      6.6909      5.0562      3.9957
C      7.0257      2.4806      5.0595
C      6.7310      0.6818      6.6617
C      7.9815     -0.0179      6.5644
C      6.4603      1.1640      5.2380
27

O      5.7407      2.3535      3.0044
O      6.6816      4.6582      5.5282
O      6.0197     -1.0046      4.1789
O      8.6717     -1.6726      3.5413
O      8.8993      0.3497      7.4489
O      5.3386      5.7359      3.3780
O      7.2087      0.3158      2.9353
H      8.9841      0.9331      5.0995
H      6.6900      1.4654      7.5382
H      8.2532      3.9821      3.2676
H      6.2931      3.5987      5.4048
H      9.8547      0.0832      7.4596
H      5.3162      1.0629      5.0774
H      8.4531     -0.9752      2.8496
H      5.9717     -0.1311      6.6817
H      9.2922     -2.2113      5.8784
H      5.6751     -0.9389      3.2421
N      7.0638      4.0324      3.1146
C      9.5686     -1.3722      5.0029
C      6.7021      2.7291      3.7606
C      7.2226     -0.1529      4.3760
C      8.6604     -0.1395      5.1629
C      6.7328      5.0699      4.0129
C      7.0024      2.4943      5.0560
C      6.7167      0.6933      6.6708
C      7.9993     -0.0183      6.5726
C      6.4496      1.1568      5.2382
27

O      5.7398      2.3556      2.9953
O      6.6924      4.6495      5.5333
O      6.0254     -0.9956      4.1596
O      8.6594     -1.6812      3.5422
O      8.8712      0.3588      7.4616
O      5.3304      5.7282      3.3726
O      7.2101      0.3318      2.9502
H      8.9653      1.0040      5.0013
H      6.6433      1.4252      7.5858
H      8.2229      3.9921      3.2373
H      6.3068      3.6328      5.3700
H      9.7591      0.0592      7.4227
H      5.3005      1.1228      5.0180
H      8.4743     -1.0246      2.9130
H      6.0371     -0.0941      6.7306
H      9.2614     -2.2003      5.8354
H      5.6983     -0.9729      3.2304
N      7.0638      4.0324      3.1028
C      9.5748     -1.3888      5.0167
C      6.7045      2.7412      3.7530
C      7.2066     -0.1499      4.3676
C      8.6661     -0.1545      5.1501
C      6.7734      5.0868      4.0312
C      6.9830      2.5041      5.0531
C      6.7023      0.7042      6.6795
C      8.0190     -0.0184      6.5796
C      6.4392      1.1466      5.2400
