   96
 8.60913090000000e+00  8.60913090000000e+00  8.60913090000000e+00
 O  1.83769418098457e+00  6.82138935108725e+00  6.71441952179801e+00     8.70036446683027e-01  4.31662663417271e-01  5.77652535366840e-02 
 H  1.46867574601148e+00  7.05225394707523e+00  1.28939997288270e+00    -3.28017488051322e+00  3.97456684841990e+00  3.57742567841123e-01 
 H  1.84572613737563e+00  4.90230104976783e+00  6.50083521388008e+00    -3.58029663033072e-01  2.22900431501816e+00 -5.77415636366056e-01 
 O  8.48349705477460e+00  8.26461674969133e+00  5.60461796084219e+00    -1.21645936627720e-01  2.80726581586365e-01  2.08581584995055e-01 
 H  2.21388274913821e+00  3.55261619281921e+00  7.25679339656272e+00     2.48957098590022e-01 -4.04695794742874e+00  1.45526730962613e+00 
 H  7.76652252575843e+00  5.22130551274212e+00  5.42243882510445e+00    -2.53456829467314e+00 -2.00404517026052e+00 -4.36293519495486e+00 
 O  1.42371929198414e+00  8.10375424442056e+00  2.91315053735586e+00     7.44724048135813e-02 -6.70149548936917e-01  3.00256745169720e-03 
 H  4.59658413775077e-01  1.71592360754974e+00  7.49190480508724e+00    -3.34238270394884e+00 -5.24765817584847e-01  7.40479421505528e-01 
 H  3.93845082763900e+00  6.98910593542391e+00  7.07852371303116e+00    -3.54809757739690e+00 -1.06157359757823e+00  5.26619662520207e-02 
 O  1.22511774535005e+00  2.38645036533368e+00  4.28859328598067e+00    -3.47557714103608e-02 -2.50810498248442e-01 -1.04581909721021e+00 
 H  3.66086907243628e+00  4.01606814660496e+00  7.95899701276494e+00     1.66290049453444e+00 -4.09796003985880e-01 -1.81329225585516e+00 
 H  2.67245283314384e+00  8.45880058190376e+00  7.07416405577370e+00     1.42539687234550e+00  7.14728826772688e-01  2.32249059213321e+00 
 O  2.15263220776828e+00  4.59135218346882e+00  7.49655434407092e+00    -2.59230811761127e-01 -3.84670993852260e-01  1.53079182700194e-01 
 H  4.07261004575339e+00  3.57648862913682e+00  3.74458022071923e+00    -1.33972890972909e+00  1.39034822698177e-01  2.39932785118154e+00 
 H  1.43625083046460e+00  5.92133166415613e+00  5.15771634960025e-01    -5.92672738424195e-01  2.95908750163539e+00  1.57880417899174e+00 
 O  8.08184803062054e+00  1.44726400613929e+00  7.42052389756251e+00    -5.85334571170075e-02 -1.28999383678175e-01  8.27394347057096e-01 
 H -1.10256717562612e-01  4.16074307371338e+00  1.08372671815418e+00    -1.70665178046666e+00 -1.44561936299258e-01 -4.02970450947376e+00 
 H  5.91990010705922e+00  4.07148188568128e+00  6.01768079334819e+00    -2.05947197907193e+00 -1.07956538760027e+00 -6.00862377462883e+00 
 O  8.62514039268888e-01  5.45460747908691e+00  3.54640335724156e+00    -7.74610723439711e-01 -8.37701688590109e-01 -6.80187691540180e-02 
 H  5.28133948171695e+00 -2.85387623737921e-01  6.64888253432585e+00     9.68077078338566e-01  7.69639267876926e-01  5.16956511745977e-01 
 H  4.23317081341361e+00  6.81571049878740e+00  1.58150026965855e+00     1.27114560809848e+00  4.31494159312503e+00 -1.85482675909868e-01 
 O  3.42386586935941e+00  6.26768286716379e+00  1.88144288235119e+00    -3.22427338252324e-01 -4.68575679481163e-01  1.29459081975437e+00 
 H  1.71579826359856e-01  3.56220447150038e+00  6.62368842229418e+00    -5.36144975301769e-01 -2.77600105516707e+00  2.71633732783009e+00 
 H  6.27499773259572e+00  6.27785152271761e+00  4.29878578491709e+00    -8.97299712522520e-01  1.21785371372712e+00  1.61447615301755e+00 
 O  6.03872332456631e+00  2.57717495002983e+00  1.32340992577356e+00    -1.11854570289315e-01 -3.37788617667474e-01  4.05549590076972e-01 
 H  5.38304129831367e+00  3.81550989419333e+00  3.05184979428892e+00     3.18802883920768e+00 -7.84704407991478e-01  3.30229026572492e+00 
 H  1.43439522796858e+00  8.43347687525391e+00  3.78747446047385e+00    -5.76239899480176e-01  9.19759006187774e-01  1.21930349923362e+00 
 O  3.52321935620533e+00  3.08014428024204e+00  5.42623875776025e+00     8.26203338218945e-02 -7.64367137844551e-01 -6.52142214792428e-01 
 H  7.96245036788636e+00  7.32019989307329e+00  7.91629548060644e+00     1.95123441342845e+00 -1.38692327540740e+00  2.20242102827608e+00 
 H  7.02149338156167e+00  6.13753425241808e+00  6.13052512519919e+00     1.07248114700675e+00 -3.01054692659904e-01  6.58131646780245e-01 
 O  3.31024651632681e+00  2.18318505227588e+00  2.38466639245110e+00    -4.48377976471415e-02 -1.27603299735228e-01 -1.07773243579155e-01 
 H  8.17855415426613e+00  3.16749170252712e+00  5.17026762516639e+00    -1.33183292091544e+00  9.24589794710475e-01  1.03958637945880e+00 
 H  7.29420027046568e+00  3.87923595547690e+00  9.58163707348610e-01     3.43445139507193e+00  3.50376328107386e-01  2.88078718794487e-01 
 O  8.63066214667768e+00  1.30880050015041e+00  1.14538723770516e+00     8.55526830760325e-02  8.20308871268482e-02 -2.95857612727180e-01 
 H  8.45931418533717e+00  8.98134473359715e+00  4.89196947006084e+00    -2.03737883028017e+00  3.19333511541002e+00  3.14894014593231e+00 
 H  5.33625933674445e+00  6.72158554634618e+00  7.44041132787164e+00    -7.60508576443141e-01  2.17276549665986e+00 -1.70531566457453e+00 
 O  7.45339750979347e+00  8.24761825353357e+00  2.61764349550156e+00    -7.19262994581469e-01 -1.07044371389645e-01 -3.42233313080435e-01 
 H  1.83071433358463e+00  3.63093618421521e+00  3.66366381401753e-01     1.30219584100168e+00  8.57462561331752e-01  2.33388148254035e-01 
 H  8.26316978646795e+00  4.47759370362619e-01  6.16737566276415e+00     2.57258628975981e+00 -2.24397336991169e+00 -1.72317532647566e+00 
 O  5.86060185800847e+00  2.99019864834451e+00  5.92871910624839e+00    -5.79614770973066e-01  1.69682375136633e-01 -2.18553215091445e-01 
 H  5.00278830395741e+00  3.94125514491827e+00  7.27845420993190e+00     4.00201377746193e-01  3.17213793857354e-01  1.19001410256660e-01 
 H  7.50352815855844e+00  2.17905391636163e+00  7.26702168018425e+00     4.19581382181714e-01  2.56504526859112e+00 -2.49662335125681e+00 
 O  1.84502798039321e+00  2.01671015365457e+00  7.10738989019569e+00     2.87887013398778e-01  7.66241888848274e-01 -6.34407445240589e-01 
 H  3.08249931678603e+00  3.86152374024603e+00  5.26508370040463e+00    -3.79720557271610e+00 -4.01087677005396e+00  1.22175605287957e+00 
 H  5.51647729268333e+00  1.01047837353563e+00  4.82373384346817e+00     1.74164386004651e+00  2.15690216093747e+00 -1.00677987198150e+00 
 O  7.17834542184601e+00  6.77911717228905e+00  8.02535833118423e+00    -2.26800996297691e-01 -5.76651493278881e-02  4.89425945951635e-01 
 H  2.62473639060656e+00  5.86065305161282e+00  1.43821083627856e+00     3.93935806135006e+00 -1.37688011019509e+00 -5.93123865552243e-01 
 H  8.41667651149409e+00  8.72963316378443e-01  1.48446167533194e-01    -7.08494319359289e-02 -5.98486082313619e-01 -1.82744208576746e+00 
 O  9.58311117586132e-01  6.69564288007141e+00  6.11398893191174e-01    -1.53374436635833e-01 -1.17042346596979e-01 -1.47262499007270e-01 
 H  4.93264027060325e+00  3.18574109212051e+00  5.61071346555492e+00     7.28916422300434e-01 -5.48358550250957e-01  1.69699561054030e-01 
 H  6.52543365719142e+00  1.74269042542856e+00  1.16519388886435e+00    -8.51307453079244e-01 -1.50754552812902e+00 -4.30015642754542e+00 
 O  5.78895530869086e+00  5.13121310001443e-01  6.76458787925305e+00     8.59223291855220e-02  2.21654846738457e-01 -7.36373197939275e-01 
 H  4.43915999415770e+00  3.36518940069214e-01  7.40956822727636e-01    -1.21482238271696e+00  5.87056464155604e-01  7.70865748319359e-01 
 H  2.72943124476610e+00  2.25548464181914e+00  1.50339890600085e+00     1.26438364517270e+00  1.94746189478949e+00 -1.81415785196997e-01 
 O  3.18447870695547e+00  6.47971552489713e+00  4.22729940174515e+00    -6.76278344669988e-01  1.70727751193176e-01 -9.01534859912782e-01 
 H  1.93899764510456e+00  4.24682280277889e+00  1.74433156967393e+00     1.63526582325986e-01 -9.27487244223084e-01 -5.25270063557006e-01 
 H  2.73143514142898e+00  2.71431186228158e+00  5.82760847239167e+00    -1.46562452982605e+00 -1.68035890691989e+00 -8.23979024872922e-01 
 O  4.81063077216186e+00  4.14572372150499e+00  3.63132750386035e+00     6.87019167120269e-02  1.08660434037799e+00  4.53118986211008e-01 
 H  4.99640272398635e+00  5.09496536355417e+00  7.88231222770040e+00     2.29713933690032e+00 -1.87381076444267e+00  1.80117328874584e+00 
 H  6.87687396893694e+00  2.35460766727203e+00  2.95799920824830e+00    -2.99088060648374e-01  5.46689203338161e-01  1.58820768105277e+00 
 O  5.10786234800053e+00  8.16016816919695e+00  9.64261421125021e-01     3.53941134428632e-01 -3.10919067054613e-01  1.08572837205862e+00 
 H  1.50052857937457e+00  7.20135058012871e+00  7.64417694419048e+00     1.72663421604351e+00  4.04837008136521e+00 -3.50231759577982e+00 
 H  3.63306873873247e+00  6.23731009114117e+00  5.10559386028029e+00     7.76479309020433e-01  1.08491288172676e+00  1.79833036811578e+00 
 O  4.76110086230078e+00  6.44180390689428e+00  6.64957372724458e+00     4.67975700014139e-01  4.11901224914275e-01  1.01822060532523e+00 
 H  2.16799343404123e+00  5.26699505885318e-05  2.54119590408298e+00     2.40397427766804e+00 -8.47690735302416e-01 -6.78527750123588e+00 
 H  6.05909340677885e+00  8.42617783983853e+00  9.56650785601719e-01    -4.32461556175854e+00  3.60435362262189e+00 -2.30448114306800e+00 
 O  3.21674667638174e+00  8.61433131176020e+00  6.31103573999826e+00     4.05567584921584e-01  2.77294747027244e-01  3.10845196830276e-01 
 H  3.50459010719904e-01  4.55943954518579e-01  9.50004871826737e-01     1.46243792009454e+00 -4.74069529611057e-01  1.42674715530656e-01 
 H  7.86016442108452e+00  6.07030766681754e+00 -6.52148933335786e-03     1.84403392116540e-01  1.78888509144621e+00 -3.25111787367991e+00 
 O  7.78889366821920e+00  4.51154656079550e+00  4.17515534398314e-01    -3.85186524174985e-02  6.61260757538718e-01  1.37098431486894e-01 
 H  1.14577267552039e+00  3.27084917660971e+00  4.01075587327801e+00     3.01980247925330e+00  1.25080634867162e+00 -3.36305494715432e+00 
 H  6.72438852469520e+00  8.58251097101217e+00  3.26995638856860e+00     7.55646034336465e-01 -3.22410548148875e-01  1.39770284706312e+00 
 O  6.86558485081004e+00  5.61452335286315e+00  5.39521428908444e+00     3.34369976400433e-01  3.55109040655527e-01  4.28991753338130e-01 
 H  3.25904347371104e+00  8.12805415609732e+00  5.55261140082794e+00     1.57769608879113e+00 -1.94054275236083e-01 -9.57625196659320e-01 
 H -1.01847072796839e-01  5.23274967582060e+00  3.54343760261662e+00    -2.48269249338516e-01 -1.19791048768554e+00  8.57609229362887e-01 
 O  4.73385448506355e+00  4.21214561707529e+00  8.17685056154099e+00     1.70338410871094e-01  4.47017622342047e-01  2.34472169034451e-02 
 H  6.34507758560936e+00 -2.73545114626575e-01  7.02012007725943e+00     8.09189771631662e-01 -3.07469346892892e+00 -4.10061409495461e-01 
 H  6.63213145222897e+00  2.68253954249736e+00  4.09856856689879e+00     4.45398809812536e-01  1.85440403439550e-01  1.21337529732182e-01 
 O  5.50925690440976e+00  6.00797288226007e-01  3.93884314301620e+00    -6.70991037184714e-02  9.03654879884894e-01 -1.36551594220747e-01 
 H  7.30864939267721e-01  6.43275789977677e+00  3.77777652631447e+00     1.65029841953353e+00 -8.58564322726652e-01  5.11762728787095e-01 
 H  1.45298968920794e+00  1.60771530764248e+00  3.81897395734507e+00    -2.21428327610699e+00  2.15089062576843e+00 -5.53348152065337e+00 
 O  2.86541749001712e+00  7.22385903518409e-01  3.64756883654709e-01     3.19344699667728e-02 -1.85302798897635e-01  3.29009663388769e-01 
 H  4.07958968596103e+00  2.68233626189527e+00  1.70392567578626e+00    -1.54138305044721e+00 -2.80007850697996e+00 -4.78564394162303e+00 
 H  5.23682436182249e+00  1.96412855265740e+00  8.55196416474503e-01     3.04552528934496e-01 -9.91101511225353e-01 -1.35279206854182e-01 
 O  5.62640536583554e+00  6.36847271503519e+00  3.50977977337647e+00     2.77189864619938e-01 -5.49611551657975e-01  2.34818777730173e-03 
 H  7.93865210405678e+00  6.17148533712466e-01  2.44379751807534e+00     2.94416525891177e+00 -1.33439520243041e+00  3.40008160309787e-01 
 H  1.06871281443110e+00  6.74197435305249e+00  6.02837503514086e+00     3.82875222797302e+00  8.39832531298450e-01  8.63392361647104e-01 
 O  1.27869380311219e+00  3.68772905158569e+00  1.18106879192990e+00     3.15950717583937e-01  1.60213809263377e-01  3.96699260321161e-01 
 H  1.85218211739820e+00  1.72864240063298e+00  8.15623461842348e+00    -4.09943639913181e-01  1.66964470999267e+00 -2.69646079485392e+00 
 H  4.58271759657883e+00  4.89945438014197e-01  3.79225730178977e+00     1.91955443883656e+00 -3.12415903518381e+00 -3.76702332653731e+00 
 O  8.34092048013266e+00  3.83185770375087e+00  5.84832445963900e+00    -2.22473321042226e-01 -7.72557062804325e-01  7.41568340070642e-02 
 H  2.08129703625297e+00  3.20680445262040e-01  8.00189008282481e-01    -2.87410396499534e+00 -2.72015362101070e+00 -4.46714429954862e-01 
 H  2.61586160169305e+00  5.68105714214886e+00  3.97567212179250e+00     8.21977419253547e-02  2.50039773480655e+00  1.48291185214834e+00 
 O  7.44275887949997e+00  2.92507822346386e+00  3.58930344740402e+00    -1.85296912833705e-01 -3.01307827017549e-01 -2.45190537634745e-01 
 H  4.02933156486070e+00  5.97065053772540e+00  3.67651129277440e+00     2.64077800099526e+00 -3.38816241578787e+00 -2.16920332952812e+00 
 H  6.31200990217597e+00  6.44671933896552e+00  2.89681101809917e+00    -1.51121444067745e+00 -2.21777781166680e+00 -1.16892445708650e+00 
