240

C     19.7867      9.2602     13.9843
C     -8.8776     14.5832      6.9352
C      3.1368      3.3209      1.0313
C     -5.7368     18.1747      2.6142
H     -3.1222      3.4079      2.6348
C     -5.4029     16.7290      2.9316
C      3.2512      4.3301      5.6189
C     15.9285      7.3093     19.5795
C     -7.0397     14.9008      4.2280
C     13.6539      8.7771     13.5128
N    -13.1866     16.0373      6.3218
C      0.4837      5.9959      0.6260
C      3.2144      4.2941      7.3178
H      0.0638      6.0476     -0.3446
C     15.6579      6.3678     17.2987
C     16.8634     10.8201     16.7690
H    -11.6162     13.2081      9.0608
H     -2.0519      2.4249      5.5809
H     -6.7938     18.1318      3.0415
C     16.6139      9.2774     16.3614
H     -4.8568     16.4410      3.8319
H     12.1790      7.5029     10.5345
H     -0.8524      4.9656      6.2974
C     -9.9284     15.6940      7.5087
H     -3.4201     10.0815      0.6416
H     -6.1149     14.5382      4.6816
O     14.5865     10.5416     14.6224
C     -4.6857     13.1256      8.1509
C      6.7016      5.8488     10.1206
H      1.3951      5.4725      9.1687
C     -6.4518     15.6583      2.9297
H      6.1210      5.1670      7.5737
H     -7.9028     10.2050      8.1193
C     17.5599     10.9024     17.8882
C     -2.8887      8.3715      4.9089
O      1.9262      8.6900      4.8155
C     -1.6977      7.2232      7.1233
C      8.8742      7.9087     12.1334
C     20.4676      8.1091     13.1492
C     -6.6685     20.2972     -0.6071
H     -7.6389     16.7392      1.1655
H     16.8538     10.1058     14.8200
H    -11.1390     12.4557      3.6943
H     -4.2542      5.5858      8.6148
C      7.0135      6.8285     11.1471
C     -4.8839     19.0462      3.4336
H     21.4144     10.2712     14.9836
C     -1.1968      6.3545      4.9768
H     14.6219      8.4793     20.5169
H      4.6066      1.6202      2.6137
H     -9.1568     19.7583     -0.0006
C     -2.9330     11.8092      7.1307
C      5.5092      5.4141      9.7530
C     15.8322      7.6572     18.0486
C     -8.4913     18.9566      0.2500
C     17.5534      9.3934     15.1051
H     -3.8110      7.8114      4.9487
H     -4.5734     21.2454      3.3170
H     -9.5955     13.3153      9.8757
H     -5.7189     13.6858      9.7397
H     18.5747     12.5156     17.4017
C    -13.1512     15.9796      8.6184
C     13.3500      8.3909     12.0296
C    -11.2463     14.9945      7.0550
C     -0.4502      6.4414      1.5633
H     -7.1137     21.2754     -0.5424
H     -3.3468      3.1643      4.8240
C     10.0053      7.3507     12.8941
O     14.4444     10.6109     12.4424
C     15.8221      8.5320     20.4184
C     -9.5453     13.7047      8.9666
C     -9.5069     14.7789      4.6334
H     -2.4794     10.7370      1.5388
H     18.8259     12.1462     19.0913
C     -8.7181     16.7247      3.2227
H     -4.4993      9.0904      6.0323
C     -2.2375      8.3761      0.7907
C     11.2183      6.5580     12.2845
H     -2.5194      9.5260      7.3053
C     -7.6026     15.9180      5.0150
H     14.7619     11.5536     12.4164
H     17.1425     12.8102     18.5496
H     -4.9563     16.6488      2.0377
H     -4.4236     13.7100      7.2134
C    -10.2402     11.9136      7.6008
C     -7.8848     11.2972      8.0622
C     -2.4004      5.0555      3.3299
C     16.0427      9.6426     19.5626
C      3.1060      3.9944      2.3717
H    -10.7507     11.4932      6.6262
H     15.9493      8.2171     13.5846
H     -2.3531      4.8688      1.3498
H      1.9075      3.7119     -0.7530
O     -7.5519     20.3791      6.7418
C      0.7203      8.0093      4.4688
H     16.4021     10.4994     20.1045
C     -2.6097      8.8070      3.6021
C     -1.9610      7.5262      3.1135
C     -2.6941      7.0199      7.8812
H    -11.4052     15.7209      5.0124
H     14.3259      7.7876     10.6236
H     -6.3295     14.9446      2.1084
C      3.5030      1.9943      0.7230
C      0.0585      8.7644      2.1507
C     -0.0091      4.0016      4.0726
C     -5.4286     10.9739      7.5725
H    -11.4610     13.6859      4.5631
H     -3.7332      7.0730      6.9803
H     15.0133      9.8389     19.0236
H     15.2709      7.0200     13.1682
O      0.3717      9.5633      6.1285
C     -6.5157     11.6991      8.2994
C      0.5153      6.9850      6.8119
C     15.0117      7.7718     13.7620
H     15.3456      8.4567     15.8665
C      0.8083      7.6954      2.9688
H     -3.9178     13.3102      8.9153
C    -10.2424     14.4779      3.3034
C    -12.5695     15.6349      7.3001
C     -2.5057     10.4185      6.5873
C     -2.3937      2.7784      4.5272
C     18.0716     12.1257     18.3523
C    -10.0202     16.0508      9.9423
C     -1.1610      7.9541      1.7807
C     -8.7126     12.1187      7.5822
N    -11.1457     13.4976      3.6687
H      1.2672      1.2707      0.3799
C      2.4619      1.2918     -0.0727
O     17.0319      6.4870     15.7170
C     -3.6723     19.2617      1.0074
H     18.4429      9.2294     19.1143
C     -2.7199      4.2381      2.3356
C     -2.5983      7.0879      9.3292
H    -11.0086     14.5969      6.0978
H     -5.0979     17.9360      0.5057
C     -2.6681      9.7193      1.0111
H      2.9616      6.7220      9.4455
H     -2.8636      5.5876      5.9359
H     -0.5374      9.4880      4.1341
H     14.3742      9.9503     10.9020
H      2.7445      0.1908      0.4062
H    -13.9811     16.6021      8.1132
C     14.9421      7.4319     15.2173
H      4.7655      6.4784      9.9698
C     14.4290      8.6482     11.1798
H     -9.7335     15.5879     10.8668
H     16.9652     11.5911     15.8777
C     -8.8396     21.3564      4.5923
C     -5.2088     20.3164      2.7939
C     20.5046     10.4064     14.4133
C     18.7904      8.7728     14.9215
C     -8.5899     19.4533      6.6877
C      1.9535      5.0364      2.4275
C     -7.0628     19.1888      0.4527
C     -7.5061     20.5766      4.3987
C     -4.9916     19.7785      1.2574
C      4.1537      5.2182      7.7735
C      1.5075      5.0638      0.9671
H     -4.7864     17.9853      4.9417
C     -6.6090     20.3731      5.5221
H     -3.9008     18.1584      0.8144
C     -6.0084     18.5273      1.1941
H     -0.0052      3.3157      3.3084
H     -1.4937      6.5578      9.3521
O     -5.5789     19.9320      5.2945
H      9.3370      8.9497     11.5042
H     -0.5781      9.7557      2.2707
H     -9.0898     18.3224      1.0427
H     -8.0509     18.4991      4.4788
C     12.1964      7.6410     11.7959
C     15.6299      6.2855     15.8667
H      1.3566      7.1203      9.2360
C     -1.7227      4.1715      4.4521
C      0.3414      6.6252      5.3334
H     -9.9261     13.0889      5.9533
C      1.3930      5.6196      4.8023
H      3.7755      0.0857      1.9556
H      0.1301      7.2149      8.7397
C     -4.9249      5.8862      9.3560
C     -8.5030     13.4665      7.8175
C     -6.8045     20.8072      3.2249
C     -3.6252      9.5366      5.7323
C     -0.1079      6.3396      2.8962
C     -1.5860      6.3106      3.5353
H     16.2460      8.2140     21.4165
H     15.2411      8.2305     11.6984
H     -2.3293      2.0868      3.6101
C    -10.6930     13.0658      8.3684
C      0.8071      5.1931      3.5915
C     -7.5574     16.5445      2.4402
H      0.8942      4.6676      7.5164
H     -1.9756     12.3055      7.3720
H     -5.9294     10.4950      6.6202
C      1.8344      6.4034      8.7530
C     -1.7334      5.0448      5.6154
C      3.6819      1.2312      2.1246
C      1.7180      4.4469      5.7399
C      1.9243      6.4911      7.2205
C      2.2549      4.1858      0.2528
H     -1.4806      6.3634      1.5280
H      4.3657      2.0186     -0.0262
H      3.1766      1.5449     -1.0982
H     -1.2370     10.3711      6.4389
H     -7.6174     13.9542      4.2010
C     -0.3633      8.8069      5.0098
C     -3.7789      6.4595      9.9936
H     17.6180      6.6584     14.8930
H     20.8824     11.0638     13.5811
C     -4.1480     11.9314      7.5881
H     -3.0139     19.6441      2.0267
H     -4.0959     10.2270      4.8449
H     -7.4628     14.7015      9.2909
C     -0.4042      7.0802      7.7030
C    -12.2223     16.3219      5.1848
O     -4.2938     18.5704      4.4392
C     -1.5937      7.7284      5.5030
C     -6.6313     15.1170      7.3127
C     -7.6937     15.3573      6.3214
C     -9.3825     13.8862      5.6130
H      5.3918      3.7006      8.5796
H      0.6096      9.0289      6.8585
C      1.8680      5.0150      7.0070
C     -8.9826     18.4269      5.1260
C     -9.7180     15.1394      8.9839
H     19.8939     11.1880     14.6711
C      8.5476      6.8463     11.2390
H      3.5829      5.8311      8.5540
H     11.6406      5.7243     12.5743
C     -8.9754     16.1297      4.7575
C     17.5327      9.6802     18.6569
C     -6.0108     13.3208      8.8034
C      5.3216      4.8029      8.3552
C     -7.1917     14.1279      8.4122
H    -12.5681     16.7124      9.2561
H     -2.7289      8.3052      9.2019
H     19.2959      9.7226     13.1344
H      8.7370      6.1063     12.1486
C     14.4614     10.0821     13.5488
H     -9.7550     17.1992      9.7411
H     -3.4014      9.1665      3.0249
