258

C     19.7166     -4.2909      0.6725
N     -2.9824     10.3841      1.9526
C      3.7066      1.4676      7.1692
C      2.1441      2.7076      2.3383
C      7.5225      4.3597      1.8687
H      9.6289     -6.1508      3.0911
C      7.4877      3.0524      2.2299
C      3.4399      3.8481      5.3404
C     16.2657     -5.7501      6.3635
C      6.3489      1.9107      4.3137
C     -6.5456      8.2144     -4.0624
C     13.6126     -4.3867      0.7368
N      0.2318      2.7256     -6.7495
C      0.4286      5.9537      0.7212
O     -1.5100      2.5785      1.9373
C      3.7496      3.6333      6.7377
C     15.7334     -6.7173      4.4158
C     16.6364     -2.5385      3.0868
H      1.1662      1.3649      9.8958
H     11.0263    -10.4772      5.4744
H     17.5061     -7.5508      1.9553
C     16.8343     -3.9774      2.8441
H     -8.3199      7.1673     -2.4795
H     -4.9609      1.9184     -3.5849
H      2.0422      3.5788     10.3531
H     11.2901     -6.5850      7.1680
H      5.8732      1.1533      9.4339
C      3.1979      3.0063      7.9056
H      7.4208      2.1958      4.5965
O     13.5772     -2.1218      2.3310
C      7.4139     -0.8665      8.8867
C     -6.5790      6.0324     -3.3480
H      2.4342     -0.1059      6.2678
H      3.5754      5.0014      8.3420
C      6.4088      2.8987      3.1150
H     -6.6747      3.6444     -5.1638
H      3.5733     -1.3162     10.0111
H      1.8835      8.0955     -4.0251
C     17.3845     -2.2313      4.1890
C     10.2251     -3.9658      5.4322
O     14.9984     -4.0536      4.5023
C     -1.3270      8.3599     -5.5863
C     -4.3181      7.8434     -1.1335
C     20.6724     -5.6712     -0.0705
C     -6.1601      6.6149     -0.9734
H      5.5034      2.8448      1.5096
H      1.4976     -1.8443      4.9500
H     -5.6735      6.1916     -4.6921
C     -5.0602      2.8413     -4.4550
H      0.6128      1.3770      1.6226
C     -5.4150      6.0190     -2.1757
C      7.6178      5.2448      3.0473
H      7.5923      6.7897      1.4132
C     12.0155     -5.8679      5.2077
H     16.3332     -4.3227      8.0703
H     16.7250     -1.7423      2.4926
H      2.3284      5.7408      0.4768
C      9.0601     -1.4777      7.7073
C     -6.9969      4.6900     -3.7060
C     15.9495     -5.3558      4.8033
C     -7.9017      5.1063      0.2515
C     17.5995     -4.1627      1.3763
H      8.1944      7.4853      2.8216
H      3.9306      1.0424     10.7393
H     -1.7783      1.7668      1.6001
H     18.6784     -0.9894      4.4231
C     -0.4773      3.7938     -4.7841
H     19.7394     -2.7745      1.5090
C      1.8005      2.3237      7.9093
H     -2.1516      7.0602     -2.3529
C     -0.8398      6.1509      1.6624
H     -6.9103      7.0998     -1.3292
H     18.7475     -4.3174     -0.1514
C     -2.8046      7.3581     -0.3064
O     14.9555     -2.4174      0.3974
C     -5.8066      8.2073     -5.1764
C     16.9396     -4.4274      7.1963
C      3.2668      1.4586      9.6883
C      2.6345      0.9463      4.6888
H     -2.1464     11.1220      2.2357
H     -3.7096     10.7312      2.4945
H      6.2268      0.1139      6.4336
C      4.1781      3.3637      3.0818
C     -2.5042      8.1437      0.7449
C     -1.7842      6.9556     -1.4164
C      5.1586      2.0507      5.1253
H     17.3636     -0.0408      3.8300
C      1.9085     -0.5005      8.7058
C      4.2026     -1.7395      7.9868
C     10.7600     -7.7807      4.1489
C     16.4856     -3.3755      6.2255
C      2.8761      3.8402      2.7266
C     -7.5134      7.1203     -3.4087
H      1.6439     -1.0392      9.5736
H     15.2594     -5.4184      0.3678
H      7.9152      3.9128      4.2256
H      0.9531      3.7553     -0.8698
O      5.5112      6.6596      6.3533
C     13.6211     -4.4505      4.5066
H      3.7559     -2.2768      7.0792
C     10.3816     -4.2921      3.8633
C     10.6110     -5.7136      3.0369
H      8.2042     -2.6178      9.1090
H      8.1061      2.1258      2.2071
C     -2.6589      8.7570     -4.8992
H     -9.3610      4.0564     -0.2966
H     -0.2499      4.1602     -3.8314
C      3.1129      1.5762      2.1222
C     12.5950     -4.2713      1.9779
O     -8.9558      4.2159      0.5695
O     -5.3797      3.6196     -2.2993
C     -0.2413      3.1825      1.5900
C      0.0690      3.8373     -8.9442
C     -6.1603     10.6144     -5.6051
H     15.5617     -2.9436      5.9098
H     -0.2078     10.4215     -8.8419
O      0.3487     10.3302     -6.8551
C      5.4700     -1.8932      8.2086
C      0.7999      7.6117     -6.0068
C     14.4278     -5.6119      1.0574
H     15.3261     -4.5752      2.2999
C     13.4046     -5.1291      3.1401
H      8.0351     -0.1330      8.4264
C      2.3174     -0.1339      3.7398
C      0.5365      2.8251     -5.3542
C     10.0704     -1.8294      6.7736
C     10.9951     -9.6741      6.0890
C     17.6607     -0.8815      4.6736
C      3.0525      3.9463     10.1704
C      0.8266      2.4766      1.9185
C     -1.4612      7.5741      1.6457
C      3.4556     -0.8492      8.9305
N      2.2968     -1.3864      4.2814
C      3.7086      1.4736      0.6845
O     17.0992     -6.7955      2.5007
C     -3.1106      6.2374      0.7775
H     -7.0133      9.2444     -7.1505
C     10.1519     -8.2525      2.9950
C     -3.1334      8.6363     -3.5816
H     -5.6846      2.5047     -5.1251
H     -5.2273      9.3649     -7.0294
C     -2.8847      9.4654      0.9353
H     -8.3370      6.5433     -4.0918
H      1.4882      6.3228     -3.4628
H     12.0130     -3.5603      2.7042
H      3.7573      0.5950      0.2530
C     14.7797     -5.4009      2.5752
H      3.3960      2.1400      0.0299
H     -5.1749      4.9877     -2.0749
H      2.3228     -2.1881      3.5673
C      4.2928      8.2512      4.1373
C      7.5666      6.6695      2.6143
C     20.4181     -3.2949      1.2269
C     18.7399     -4.8352      1.5456
C      4.0254      6.0378      6.1988
C      1.9795      5.0454      2.5774
C     -6.5323      5.5213      0.0175
C      5.6104      7.5888      3.9672
C     -4.4577      5.9485      0.3918
C      4.1938      4.9340      7.4365
C      1.7408      5.0188      0.9687
H     -3.3444      9.1998     -5.6206
C      6.3808      7.1037      5.1252
H      1.7804      1.7977      4.4226
H     10.0453     -7.4859      2.3796
C     -5.3348      4.7791      0.5151
H     -0.7286      3.4591     -9.3877
O      7.4881      7.0512      5.1820
H     -4.5139      8.9408     -1.1071
H     20.8792     -3.7920      2.1967
H      0.6587      2.9191     -9.3090
H      2.4917      4.8086     -0.9331
H      4.8061      5.2450      4.4030
H     -6.8718      5.7206     -5.3376
C     15.5990     -6.6301      2.9247
C     10.7790     -8.3460      5.6804
C     13.5110     -5.7118      5.3354
H     -7.1771      9.1948     -3.5559
H      3.4893      1.8539      4.4844
C      1.3500      5.8584     -8.1851
H      1.6706     -0.9635      7.6580
H      2.6171     -0.8073      1.7951
H     12.8501     -2.7843      2.6114
H     -2.3088      8.4649     -2.8723
C     -4.7685      7.1345     -4.8747
C      4.1248      0.6053      8.5760
C      6.0902      7.4112      2.8263
C      9.8797     -2.4543      5.3675
C     -0.0960      6.2884     -9.8718
C     11.5313     -6.5569      4.0493
H     10.0101     -1.3246      8.4993
H      2.3189      3.1987     -0.0234
H     -8.4279      5.7392     -0.4390
H     10.5457    -10.5141      6.9126
C      1.9118      1.2926      9.0815
H     10.9307     -1.3737      7.3794
C      0.8271      5.1271     -9.3783
C      5.3271      3.1930      2.4548
H      1.2127      5.0825     -4.8178
H     17.9454     -4.1230      7.2202
C     -5.7756      3.7095     -3.4450
H     -6.1022     11.2712     -6.4562
C      2.1304      7.0664     -4.1581
C     11.5609     -7.3457      6.4792
C      2.1802      0.1048      2.3586
C      1.2542      4.8829     -7.0254
C      2.0537      6.8779     -5.7898
C      1.7242      4.0412     -0.2242
H     -1.4079      5.4297      2.1177
H      4.0309      1.1517      2.7686
H     -3.8908      9.2369     -3.0681
H      4.6712      1.4878      0.7894
H     -3.7584      6.9510     -5.2746
H     -4.2471      3.1743     -5.2404
H     10.5644     -1.9912      4.5729
H      6.5140      1.1333      3.6643
C     -0.1281      9.4260     -7.8676
C     -3.9303      7.3424     -3.5446
H     -7.8327      6.0854      1.1061
H      9.2688     -4.0201      3.1081
C      7.8872     -2.1009      8.2863
H      9.8739     -9.2808      2.7296
H      9.2351     -2.2673      4.5603
C     -0.0356      7.8607     -5.0947
C      0.4474      3.7611     -7.5598
O      7.9249      4.8925      4.2446
C     -1.3090      8.5278     -7.0722
C      6.0612      0.8493      7.1379
C      5.0352      1.9711      6.4224
C      2.7892      0.7895      6.2346
H      6.9486      1.0833      7.2505
H      4.8078      2.5326      9.7456
H      8.0250     -0.8450      9.9961
H     -0.1450     11.0131     -7.3046
H     17.3614     -0.7165      5.7736
H      0.2177      6.8917     -4.2934
C      1.5551      5.4681     -5.8032
H     -0.0997      4.3033      1.5454
C      3.9140      5.3397      4.9047
C      3.7621      2.8866      9.4258
H     21.3788     -2.6985      0.9788
H     -0.1325      5.6421     -0.1509
C     -4.4214      7.0596     -2.3503
H      3.6992      4.0449     11.1666
H     -1.5550      5.7082     -1.5860
C      4.3078      3.0725      4.5434
C     17.3161     -3.3234      5.0673
C      5.9965     -0.8439      9.1126
C     -6.0188      9.1709     -6.2748
C     -7.1940      4.6539     -5.1469
C      5.5157      0.3430      8.5884
H     -0.7091      4.8163     -5.4747
H     -3.6250      9.5064      0.1231
H      5.5606     -1.1068     10.1447
H     -2.3331      5.3708      0.6096
C     14.1425     -3.0542      1.1438
H      2.6770      4.8944      9.4857
H     11.3410     -3.7645      3.6533
