259

C      6.6502      9.0299      0.6974
C      4.2340     14.5415      6.9178
C     16.1976      3.2793     14.1901
C      7.2240     17.9572     15.2932
H     10.1341      3.3357      2.2574
C      7.5680     16.6372     15.5540
C      3.2465     17.0222      5.4212
C      6.7516     22.5933     10.5511
C      3.1637     20.1064      6.6250
C      6.2626     15.1850     17.0428
C      6.3741     21.4385      9.6945
C     13.6542      8.7529     13.7938
N     12.6542      3.0770      6.1147
C     13.5131      5.9798     13.5255
C      3.3395     16.9049      6.9493
H     13.1731      6.2064     12.4994
C      2.6205     19.1798      4.5313
C      4.0136     10.7336      3.4102
H     10.0167      2.8871      3.8965
H     17.5684      5.7765     15.4499
H      5.5105     23.5077     11.7114
C      3.8464      9.2023      3.1762
H      7.0991     23.1321      9.6263
H      8.5160     16.2120     16.1626
H     12.6515      6.9353     11.1474
H     11.9469      5.2452      6.6502
C      3.0997     15.4631      7.2737
H      9.8373     10.5431     13.1838
H      7.2643     15.9729     17.2349
O     14.3737     10.3428     15.3356
C      8.1319     12.5082     21.5554
C      6.7385     18.8800      9.7845
H     14.1821      6.6448      9.5753
C      6.5655     15.6482     15.4731
H      6.2863     17.6757      7.7133
H      6.7686     22.3383     11.6825
H      4.8447     10.5652     21.2403
H      4.9478     20.6724      8.9828
C      4.1422     11.1129      4.6544
C      9.9972      8.4279     17.9060
O     14.7924      8.7114      5.1051
C     11.2461      7.6780      6.8268
C      8.8086      8.0156     12.1778
C      7.4953      7.7571      0.1435
C      6.0898     20.2297     11.9684
H     18.5956      4.2926     14.8596
H     15.4392     -0.6432     17.5992
H      8.6568      5.7487      8.0781
C      6.7160     20.0685     10.7016
C      7.6348      5.9912     16.3901
H      8.8389      9.4098      1.4366
C     11.7726      6.5424      4.9228
H      3.3970     21.1841      8.1037
H     17.5642      0.2611     15.2222
H      5.5802     24.2979     10.4110
H      4.1895     19.3727     12.3234
C     10.0306     11.9272     19.6720
C      5.4757     18.3073      9.4566
C      2.9062     20.7276      5.1099
C      4.2110     18.7746     13.2130
C      4.4319      8.9942      1.8893
H      9.3635      7.6307     17.9761
H      8.7377      8.2609     15.8352
H      4.4027     13.9765     23.0614
H      6.2183     12.4516     22.3715
H      4.9565     13.3276      4.1538
C     12.8467      2.8388      8.5197
C     13.1483      8.4914     12.4832
C     14.6419      2.0090      6.6471
C     12.2927      6.3945     14.2308
H      5.3137     20.9277     12.0968
H     10.5280      2.2961      5.1880
H      5.7076     17.7655     17.4499
H      5.1155     22.6013     10.2969
C     10.0246      7.3821     13.0325
O     15.2899     10.9993     13.2636
C      6.6831     21.4674      8.1663
C      3.6279     21.3499      7.1586
C      3.6218     14.3251     22.2484
C     16.3882      1.7771     17.7266
H     11.4528     10.5770     14.3983
H      5.8647     12.7131     19.8186
C     17.0747      3.5450     16.1658
H      8.5204      9.3994     18.6164
C     10.6928      8.5691     13.7017
C     11.0020      6.7640     12.1228
H     10.7709      9.7540     20.3753
C      5.4026     15.9324     18.1028
H      5.7494     12.2839      5.5849
H      8.0756     16.7860     14.3702
H      8.6540     13.0015     22.5812
C      2.5601     12.3862     21.2742
C      4.8899     11.5351     20.8938
C     10.4521      5.1802      3.3562
C      3.4675     22.7192      6.7148
C     16.0291      4.0542     15.3592
C      4.8456     21.4354      9.6334
H      1.9671     11.4688     21.4948
H      3.3014      8.5981      1.2612
H     10.0522      4.5727      1.1954
H     14.9315      3.4521     12.1251
O      5.7074     19.5457      6.5643
C     13.4685      8.0757      4.5893
H      3.7924     23.3001      7.5775
C     10.1766      8.5995     16.4231
C     11.0179      7.7290     15.8673
H      5.9286     22.3581      7.9398
C     10.0634      7.7636      7.5566
H     14.0283      2.5851      4.3297
H     14.6793      7.4004     11.2999
H      6.0442     14.8716     14.6844
H     13.1756      3.6293      9.4726
C     16.7402      1.8645     13.9707
C     12.8317      8.6365      2.0623
C     12.5134      4.0074      4.1647
C      7.4172     11.4426     19.6164
H     14.3904     -0.1236     16.7582
H      9.0803      7.4659      7.0290
H      2.2050     23.0432      6.5087
O     12.8732      9.4333      6.3178
C      6.2143     11.8903     20.4546
C     13.5603      6.9589      6.7248
C     15.1727      7.9531     14.0953
H      2.5965      8.6549      3.1108
C     13.4421      7.8428      3.0962
C     15.7093      0.9438     16.6288
C     13.4339      2.6706      7.1969
C     10.3414     10.5316     19.5803
C     10.2550      3.2644      4.8488
C      4.6900     12.5532      5.2219
C      2.7741     16.7239     22.4490
C     11.6275      7.8842     14.4664
C      3.8756     12.4715     20.7716
N     15.2517     -0.3457     16.7366
H     15.2700      1.6640     12.0555
C     16.1456      1.1452     12.7435
O     16.9888      6.5467     15.4995
C      9.3881      6.3392     13.7858
H      5.4697     22.9344      6.0582
H     14.2907      1.0136      7.0812
C     10.1452      4.3609      2.3620
C     10.2263      7.4076      9.0743
H     14.6318      2.0712      5.5098
H      7.1464     17.8329     13.2573
H      7.7102     22.9929      7.0674
C     10.7587      9.9516     13.7562
H      4.4643     22.3358      9.3123
H     16.0009      6.3490      9.2488
H     12.1337      9.6835      4.4951
H     13.8852      8.4115     10.3538
H     16.6298      0.2537     12.8369
H     12.4858      1.8647      8.7197
C     14.8765      7.7262     15.4480
H      4.8344     18.1366     10.2862
C     14.2903      8.2908     11.3293
C      5.5422     23.3417     10.7168
H      3.2392     16.6197     23.5025
H      3.9466     11.3948      2.5214
C      4.1604     21.4708      4.5772
C      7.7215      7.3358     15.6053
C      7.7364      9.6381      1.4860
C      5.7733      8.6452      1.7406
C      4.2209     18.9553      6.5290
C     14.8720      4.9885     15.3652
C      5.6496     18.9093     13.0769
C      5.5088     20.7845      4.3657
C      7.9506      6.8187     14.0932
C      4.2015     17.8562      7.5963
C     14.3518      4.9101     13.8949
H      8.6626      6.1880     18.2437
C      6.2509     20.2180      5.4993
H      9.1088      5.4204     13.0889
C      6.9446     18.6862     13.8689
H     12.1544      3.3205      3.3549
H     11.3259      6.9532      9.3918
O      7.4688     20.4106      5.6496
H      8.6289      9.0831     11.9450
H     12.5287      9.4521      2.8705
H      4.0963     17.9038     13.8746
H      4.7312     18.5863      4.6957
C     12.3485      7.2860     12.0496
H      6.9305     17.4025     18.3779
C     15.6115      6.2023     15.9642
H     15.2114      7.9689      9.1427
C     11.1247      4.4129      4.6696
C     13.4379      6.8230      5.2682
H      4.3248     20.9631     10.3301
H      2.8321     13.2841      5.9298
C      1.2761     18.5967      4.6755
H     15.7455      0.0833     14.6830
H     12.8748      7.5351      8.4977
C      7.9955      6.2321      8.8575
C      4.4130     13.7730     20.9918
O      5.9158     17.2859     18.2846
C      6.3173      7.9167     16.0323
C      9.5373      9.7271     18.4356
C     12.6042      6.2813      2.8092
C     11.4473      6.4390      3.5997
H      4.6972     21.1950      6.9878
H     14.9916      9.1382     11.4371
H      9.2756      3.7078      5.0643
C      2.4285     13.4112     22.3998
C     13.7008      5.1817      3.3328
C     18.2420      3.5868     15.5337
H     14.3481      4.2685      7.7700
H      8.9075     21.6267      7.4875
H     10.8934     12.2978     20.2217
H     14.4167     10.9703     16.1215
H      7.0046     10.7841     18.8078
C     15.0498      7.0424      8.8926
C     11.3572      5.4708      5.8114
C     16.6032      0.6943     15.3063
C      1.6837     17.5269      5.6534
C     14.9707      6.6995      7.3903
C     15.3354      3.9475     13.2533
H     11.8245      5.4239     13.9689
H     16.9192      1.5841     12.0932
H     11.2016     10.5148     19.2203
H      5.9477     14.1475     17.0444
C     12.4042      8.8273      5.0983
C      9.1584      6.8312      9.6891
H      7.6226     10.6518      1.5054
C      8.6063     12.1415     20.2401
H      9.9637      6.1367     14.6872
H      9.3953     10.4490     17.6271
H      6.0393     14.6709     22.2522
C     12.4441      7.1453      7.3470
C     13.6054      3.4128      5.0264
O      8.4543      5.6568     17.4416
C     11.1678      7.9354      5.4601
C      6.4864     14.9967     20.4192
C      5.5653     15.1792     19.5049
C      3.6385     13.7382      5.8840
H      6.8804     20.4248      8.1085
H      5.2727     16.6228      8.5202
H      8.5574     22.5738      8.5979
H     13.8298      9.3712      6.6107
C     14.8971      4.9002      7.1147
C      3.7315     18.2936      5.2329
C      3.0415     15.6017     21.7551
H      7.6427      9.4028      2.5190
C      8.3347      7.0940     11.1076
H      3.6424     18.0852      8.5098
H     10.6506      6.1023     11.2635
C     17.0462      3.2023     17.5819
C      4.3903     22.8166      5.5283
C      6.5927     12.7839     21.4793
C      7.9362     22.1919      7.8345
C      5.4414     17.5061      8.2675
C      6.0164     14.0623     21.4471
H     12.0088      3.7114      8.2545
H     10.7325      8.5192      9.7263
H      9.8516     12.2219     18.5506
H      6.2484      9.7602     -0.1533
H      8.2391      6.0033     11.8652
H     11.5091      3.4866      6.4762
C     14.4317     10.2722     13.8721
H      2.6877     17.7185     22.2335
H      9.4747      9.4451     16.0114
