263

C     19.7858      9.0851     13.8880
C      4.1059      1.5281      6.8791
C      2.8176      3.2835      1.0303
C      7.4238      4.8309      2.5511
H     -2.7883      3.4576      1.9072
C      7.8867      3.4307      3.2001
C      3.0012      4.1013      5.3973
C      6.8023      9.7602     10.5231
C     15.9847      7.1713     19.4527
C      6.1627      1.9319      4.3842
C      6.5356      8.3887      9.9506
C     14.0259      8.8435     13.7400
N     -0.2177      3.3167      6.3412
C     13.4132     -6.8371      0.5839
C      3.0784      4.0443      6.9388
H     13.4569     -6.5074     -0.4751
C     15.6093      6.3087     17.3047
C     16.7277     10.5053     16.4783
H      1.2967      0.3806      9.4464
H     -2.7930      2.5971      3.7571
H     17.8081      5.7441     15.4900
H      6.1207     11.6143     11.6216
C     16.9174      9.0947     16.3897
H      7.4886     10.2806     10.0286
H      7.9631      3.7795      4.1342
H     12.1917      7.7479     10.5065
H     -1.5767      5.0729      6.7081
C      3.1405      2.5712      7.3230
H      9.4556     -2.9882     -0.2993
H      7.1096      2.0619      5.0308
O     14.9811     10.4766     15.0709
C      8.1155     -0.1365      8.6601
C      6.7333      5.9790      9.5416
H     13.7030     -6.7314      9.0095
C      6.6198      2.7033      2.9980
H      6.0060      4.8559      6.9574
H      6.9075      9.5446     11.5747
H      4.3607     -2.7300      7.6239
H      5.0445      7.3054      9.1134
C     17.2198     10.8769     17.8201
C      9.8078     -4.3038      5.0150
O     14.8004     -4.3878      4.7671
C     11.4414     -5.4537      7.1191
C      8.5559      8.0633     12.1240
C     20.2453      7.9403     13.0645
C      6.1398      7.1780     -0.5652
H      4.8811      3.8745      1.3638
H      2.8752     -1.1112      3.8598
H      7.9520     -6.3607      7.8056
C      6.8473      6.9032     10.7914
C      7.8638      5.8110      3.4366
H     20.8901      9.8746     15.5070
C     -1.2322      6.6005      5.1146
H     15.7616      8.3058     21.2532
H      4.9539      1.0753      2.3203
H      5.7291     11.2753      9.8958
H      3.7966      6.1650      0.2954
C      9.8198     -0.9674      7.1901
C      5.6917      5.3185      9.0133
C     15.6993      7.6382     18.0098
C      4.8406      6.0195      0.8623
C     17.5226      8.9141     15.0280
H      9.2689     -5.0471      5.5811
H      8.8327      7.4742      3.1831
H      4.0537      1.0293     10.1853
H      6.7124     -0.4843      9.9202
H     17.7661     13.0290     17.3038
C     -0.1048      2.7564      8.7957
C     13.2389      8.3125     12.3373
C      1.7407      1.9710      7.1139
C     12.2616     -6.3431      1.3351
H      5.1288      7.8480     -0.6414
H     -2.1669      2.0513      5.5441
H      6.9161      4.4271      5.7650
H      4.9264     10.1949     11.3689
C     10.0156      7.7337     12.8050
O     14.9047     10.9930     12.8669
C      6.9979      8.5133      8.6496
C     16.2576      8.3740     20.4217
C      3.6009      1.2205      9.1109
C      3.6327      1.5376      4.6842
H     10.7665     -2.1462      0.5060
H      5.5997     -0.1342      7.1276
C      3.9963      3.4522      3.2466
H      8.2718     -2.8435      5.5753
C     10.8044     -4.2522      0.4418
C     10.8877      6.8503     11.8513
H     10.4339     -3.5017      7.1859
C      5.3925      2.9956      5.1791
H     18.3160     12.6852     18.7288
H      8.9484      3.1417      2.6177
H      8.7311      0.7178      8.6231
C      2.6027     -0.8268      8.5178
C      4.8296     -1.8586      8.1563
C     -2.2755      5.1259      3.2303
C     16.0865      9.5250     19.3819
C      2.9508      3.7692      2.4036
C      5.1786      8.1109      9.8884
H      1.4990     -0.9991      8.1945
H     16.4280      8.1836     13.9644
H     -2.7743      4.6211      0.9450
H     14.7336     -8.9753     -0.6390
O      5.5274      7.0206      6.9112
C     13.5389     -4.7977      4.5281
H     16.2830     10.6159     19.9136
C     10.0438     -4.3574      3.6506
C     11.0391     -5.0093      2.8960
H      6.0606      9.4227      8.5008
C     10.2974     -5.5613      7.7475
H      1.0390      2.8078      4.8126
H     14.5183      8.0111     10.3487
H      6.8488      1.6458      2.2778
H      0.5892      2.9843      9.6836
C      3.4379      1.9205      0.9777
C     12.9237     -4.0967      1.8871
C     -0.2415      3.9902      3.9439
C      7.2428     -1.5743      7.0816
H      1.4986     -0.5118      3.8552
H      9.4623     -5.5175      7.1272
H     15.0852      9.5628     18.9267
O     12.9655     -3.0899      6.1518
C      6.1446     -0.9569      7.7320
C     13.7159     -6.0149      6.7791
C     15.1255      7.8460     13.9666
H     15.2733      8.5453     15.9331
C     13.5918     -5.2095      2.9411
H      8.3838     -0.9402      9.2905
C      2.9595      0.9930      3.4058
C      0.3942      2.7290      7.3674
C     10.1987     -2.4297      6.5842
C     -2.4138      3.0295      4.7979
C     17.8340     12.1154     18.0311
C      2.5014      2.9960      9.9194
C     11.6963     -4.9605      1.6848
C      3.9443     -0.7857      8.3453
N      2.5245     -0.1813      3.4892
H      2.0078      0.2127      1.2102
C      2.5741      0.7872      0.2404
O     17.1052      6.5578     15.5978
C      9.3914      6.7896      1.0643
H      1.7919      1.0434      7.2887
C     -2.2277      4.2942      2.0607
C     10.0897     -5.2601      9.1842
H      1.4810      1.7855      5.9732
H      7.7367      4.7390      0.5423
H      7.6245      9.6710      7.1366
C     10.2526     -3.0217      0.1140
H      4.5927      9.0283     10.1380
H     15.4343     -6.9172      9.2223
H     -2.9214      5.8392      5.6295
H     12.2788     -3.0492      4.3239
H     13.8265      8.9787     10.1953
H      3.3389      0.1099      0.0711
H     -0.3024      1.5547      8.9526
C     14.9249      7.6052     15.5104
H      4.9551      5.0443      9.6416
C     14.1307      8.4375     11.2119
C      5.8367     10.8206     10.8529
H      2.4044      2.4859     10.8670
H     16.4870     11.1712     15.5099
C      4.3641      8.2382      4.6196
C      7.6252      7.2190      2.9637
C     20.8094      9.9970     14.3036
C     18.8391      8.4638     14.9747
C      4.1361      6.1119      6.4346
C      1.9131      4.9896      2.3863
C      5.9433      6.1249      0.3796
C      5.5922      7.5604      4.3464
C      7.9345      7.0532      1.3507
C      4.1443      4.9724      7.5262
C     14.2774     -7.8296      1.1500
H      9.2176      6.2179      4.6599
C      6.1453      7.3808      5.7573
H      9.0875      5.7492      0.7502
C      7.1109      5.5687      1.1480
H     -0.2066      3.2676      3.2212
H     10.9192     -5.8752      9.6950
O      7.3314      7.8045      5.7455
H      8.6298      8.7836     11.3375
H      2.2510      2.0369      3.5774
H     12.5789     -3.1347      2.1718
H      4.6804      4.9191      1.2476
H      4.5570      5.3668      4.3946
C     12.1385      7.6486     11.6108
C     15.7313      6.4061     15.8729
H     14.5256     -5.2233      8.7098
C     -1.7051      4.2189      4.5457
C      0.3000      6.8756      5.2587
H      4.7971      7.4533     10.6657
H      2.8845     -0.1712      6.1271
C      1.3268      5.7979      4.6598
H      3.8520     -0.0547      1.9455
H     12.4800     -6.4781      8.6009
C      7.9511     -6.7411      8.9097
C      4.5119      0.5798      8.2537
O      5.9981      4.2639      5.1442
C      6.3568      7.7994      3.2619
C      9.3845     -2.8558      5.2872
C     12.8027     -6.4804      2.7317
C     -1.4362      6.2689      3.5718
H     17.2912      8.6391     20.5944
H     14.9761      9.1762     11.4052
H     -3.2010      3.3564      5.5061
C      2.3550      0.3605      9.1320
C      0.7174      5.3900      3.2778
C      5.2544      3.5161      2.5320
H     13.7715     -7.9534      7.6099
H      8.7930      8.4490      7.3466
H     10.4016     -0.9555      8.0244
H     15.1647      9.3628     15.2248
H      6.7636     -2.3757      6.3209
C     14.6767     -6.3036      8.8081
C     -1.8833      5.5192      5.7087
C      3.8115      1.0525      2.1496
C      1.5269      4.6107      5.5077
C     14.9747     -6.6301      7.1740
C     14.9001     -8.7659      0.3513
H     11.4702     -7.0160      0.7514
H      2.3675      1.5527     -0.7833
H     11.0467     -2.2145      5.9623
H      6.0223      1.0060      4.2079
C     12.5204     -3.8768      5.0494
C      8.6818     -5.9291      9.7270
H     21.4241      9.8964     13.4451
C      8.3883     -0.9904      7.3706
H     10.0343      6.9563      2.1493
H      9.6135     -2.3378      4.3624
H      5.6129      1.9195      9.2510
C     12.5614     -5.9296      7.6106
C      0.5370      3.7242      5.1034
O      8.6586      5.3875      4.5975
C     11.3583     -4.8970      5.5843
C      6.4187      1.8414      7.3792
C      5.2694      2.3032      6.5771
C      3.2375      1.0370      5.8376
H      6.9725      7.6263      8.0113
H      5.9777      3.9284      8.5953
H      8.2955      9.9837      8.7677
H     13.5316     -3.6357      6.8809
C     14.6080     -8.0662      6.9807
H     -1.1324      4.5847      1.7785
C      3.7392      5.4451      5.0229
C      3.1840      2.5631      8.8705
H     19.9978     10.7921     14.6101
C      8.2002      6.9590     11.1440
H      3.8293      5.3443      8.4571
H     10.4349      6.5261     11.0191
H      6.5318      0.8731      6.9157
C      4.0573      3.1334      4.5806
C     17.4207      9.4498     18.5398
C      6.6617     -0.2507      8.7674
C      8.3211      9.2451      7.9235
C      5.5265      4.6424      7.8804
C      5.8750      1.1369      8.4573
H     -0.6631      3.6457      8.8613
H      9.8330     -4.1692      9.7010
H      9.8406     -0.2322      6.3632
H     18.9783      9.7118     13.5333
H      8.5205      5.8734     11.7452
H     -0.6209      4.1090      6.6759
C     14.6666     10.2787     13.7803
H      1.8248      4.0201      9.5271
H      9.7664     -3.5341      2.9906
