262

C     19.5541     -3.6706     14.0134
C      4.1257      1.7690      7.3360
C      2.9204      3.1061      1.4255
C      7.0830      4.9758      2.3541
H     -3.9535      3.5253      2.7614
C      7.2487      3.5278      2.7849
C      3.1488      3.8663      5.4158
C      6.7345     -3.1363     10.5902
C     15.9613     -5.5844     19.2657
C      6.3898     14.9492      4.2077
C      6.2142     -4.4839      9.9308
C     13.7645     -4.2398     13.7883
N     -0.1571      3.0600      6.2886
C     13.8556      6.0777      0.4668
C      3.1946      4.0473      6.8229
C     15.7226     -6.8137     17.3109
C     16.5685     -2.2312     16.3827
H      1.3492      0.5958      9.9572
H     -2.0465      2.0152      5.2472
H      4.4506      6.7287      4.0264
H      6.0599     -1.1502     11.2573
C     16.6667     -3.6970     16.1728
H      7.7286     -2.6854      9.9793
H      7.8336      3.5595      3.5682
H     12.5457     -6.3391     11.3619
H     -0.9698      4.9094      6.5985
C      2.8828      2.7283      7.5200
H     10.0298     10.6828      0.5265
H      7.4561     15.0611      4.5799
O     14.3341     -2.1488     15.0759
C      8.3785     12.7748      8.8883
C      6.7335      6.1655      9.7794
H     15.0899      5.9890      9.2746
C      6.4477      2.5624      2.7680
H      6.0693      3.8260      7.4915
H      6.6153     -2.9808     11.6476
H      4.5155     -2.6204      7.9167
H      4.5364     -5.5466      9.5286
C     17.5334     -1.9119     17.4430
C      9.9719      8.6171      4.9883
O     14.8549      8.5004      4.8056
C     11.2044      7.5530      7.0112
C      8.5250     -4.6607     12.1821
C     20.2104     -4.9835     13.1371
C      6.3165      7.5084     -0.5957
H      5.4467      3.7377      1.4792
H      1.8032     -0.8624      3.4664
H      8.1451      6.0013      8.0789
C      6.8130     -5.7239     10.8350
C      7.3658      5.9229      3.2485
H     21.6854     -3.4321     14.5767
C     -1.1849      6.5272      5.0319
H     14.9973     -4.3814     20.3010
H      4.0980     -0.3683      2.2295
H      5.0247     -2.0449      9.8349
H     15.5300     -5.6394     13.2505
C     10.0235     11.9361      7.3066
C      5.6273      5.3545      9.2987
O      5.3108      2.9539     10.3739
C     15.8005     -5.3523     17.8530
C      3.9939      6.1983     -0.0197
C     17.2044     -3.7830     14.8824
H      9.0228      7.9223      5.2973
H      7.9776      8.0719      3.0100
H      4.0416      1.0052     10.3034
H      6.6587     12.7222      9.9662
H     17.5144     -0.1683     17.2993
C     -0.1653      3.1873      8.6566
C     13.4062     -5.0082     12.5585
C      1.5608      1.8613      7.0142
C     12.2979      6.4864      1.3110
H      5.7698      8.3485     -1.1607
H     -3.1267      3.4285      5.9317
H      6.8853     17.0969      4.5838
H      4.9161     -2.2787     11.5588
C      9.7610     -5.1854     13.0047
O     15.0082     -1.9031     13.1237
C      6.6701     -4.5336      8.5514
C     16.1464     -4.4457     20.2703
C      3.3118      1.4718      9.4259
C      3.5324      1.5657      4.8757
H     11.5479     10.4224      1.4422
H      6.1046     -0.2477      7.0636
C      4.0794      3.3423      3.2143
H      8.8019     10.1987      5.4820
C     10.7118      8.6402      0.7622
C     10.8357     -5.6252     12.0082
H     10.8007     10.3050      7.1831
C      5.6274     15.9209      5.2913
H     18.2251     -0.4661     19.1358
H      8.7200     13.7390      8.5613
C      2.7150     -0.5989      8.8885
C      4.9423     -1.5880      8.3410
C     -2.3259      5.0559      3.5908
C     16.5039     -3.1715     19.4178
C      2.7574      3.6102      2.7108
C      4.8272     -4.7659     10.0563
H      2.2578     -1.5789      9.3579
H     16.4246     -4.5680     14.2016
H     -3.6971      5.0620      2.0697
H     15.0178      3.3879     -0.3075
O      5.3721      6.9813      6.3965
C     13.5265      8.0141      4.6083
H     16.4943     -2.0726     19.6135
C     10.2822      8.5273      3.5739
C     10.9853      7.6844      2.9339
H      5.6194     -4.1525      8.1620
C      9.9544      7.3894      7.6108
H      1.0764      2.3929      4.7440
H      6.8599      1.8454      1.9868
H      0.4827      4.1682      8.6985
C      3.7620      1.7994      1.3005
C     12.8040      8.6606      1.9753
O      6.6334      4.5798     11.4505
C     -0.1494      3.9684      3.9114
C      7.3693     -2.0780      7.2618
H      2.3470     -0.5432      5.1784
H      9.1739      6.8238      7.1938
H     15.4202     -3.0516     19.0493
H     14.2395      5.8795     -0.5901
O     12.8220      9.7519      6.4095
C      6.2023     -1.3275      7.9007
C     13.2328      6.9496      6.5815
C     15.1890     -5.0347     14.0585
C     13.4418      7.5779      2.8869
H      8.4854     11.9290      9.8950
C      2.7770      0.8758      3.7978
C      0.3623      2.5033      7.3182
C     10.5491     10.9783      6.2092
C     -2.4736      3.1617      5.0730
C     18.1369     -0.7472     18.0598
C      2.8825      3.7703      9.8686
C     11.5021      7.9410      1.5614
C      4.0422     -0.5012      8.6078
N      2.3245     -0.3948      4.0328
H      3.2396      2.1965     -0.7850
C      3.4372      1.0982     -0.3967
O     17.0344     -7.0412     15.3323
C      9.4380      6.6509      1.0504
H     18.3746     -3.3538     19.0176
H      1.5922      0.7510      7.4470
C     -3.0852      4.4082      2.7494
C      9.9842      7.5864      9.1536
H      1.4566      1.4233      5.9431
H      7.2837      4.8495      0.4391
H      7.9168     -4.0758      6.7258
C     10.6458     10.0736      1.1100
H      4.1033     -3.9843      9.7388
H     15.2950      7.8229      8.7615
H     -2.7347      5.7424      5.9142
H     12.3192      9.7376      4.2383
H     13.9985     -5.6332     10.7809
H      2.4356      0.9546     -0.2975
H      0.0364      2.8020      9.6932
C     14.9066     -5.5601     15.5742
H      4.5402      5.7696      9.6770
C     14.5226     -4.8770     11.4919
C      5.6490     -2.0735     10.7367
H      3.0067      3.6577     10.8764
H     15.9793     -2.0972     17.1715
C      4.1402      8.6399      4.3598
C      7.5345      7.2052      2.7220
C     20.8283     -3.1771     14.9355
C     18.3859     -4.4948     14.7301
C      4.0210      6.1628      6.4062
C      1.9962      4.8954      2.4496
C      5.3092      6.3461      0.2325
C      5.1038      7.6275      4.0817
C      7.7946      6.9907      1.2643
C      4.2191      5.0109      7.4099
C     14.6381      5.0434      1.0467
H      7.6716      6.8848      4.6453
C      5.8860      7.6535      5.3699
H     10.1776      5.8593      0.8391
C      6.8941      5.6944      0.9493
H     -0.4066      3.1491      3.0670
H     10.7780      7.3362      9.7790
O      7.2452      7.7972      5.3281
H      8.1709     -3.5568     12.0919
H     12.8081      9.8094      2.4876
H      3.5339      5.0019      0.3708
H      5.1203      4.9848      4.7366
C     12.1272     -5.4118     11.8228
C     15.7687     -6.7845     15.7670
H     13.9843      6.9403      8.8231
C     -1.5161      4.3038      4.6398
C      0.2798      6.7209      5.1692
H      4.3641     -4.8341     10.9443
H      3.6256      0.1370      6.0204
C      1.3150      5.6897      4.7075
H      2.8434     -0.0250      1.8619
H     16.4812     -1.8094     15.4600
H     12.4597      6.7457      8.5905
C      8.0522      6.0939      9.2216
C      4.2706      0.9532      8.4427
O      6.2670     17.0350      5.3866
C      5.8482      7.6664      2.7547
C      9.8592     10.2379      5.1720
C     12.7024      6.2143      2.8344
C     -1.5124      6.5253      3.6809
H     17.0414     -4.5368     21.0905
H     14.7344     -3.8424     11.4204
H     -3.3464      2.8264      4.3608
C      2.1420      0.5386      9.2926
C      0.7132      5.1204      3.3153
C      5.0633      3.2000      2.3286
H     14.0162      4.1821      7.4072
H      8.3715      8.0922      9.0528
C      5.7623      4.4004     10.5115
H     10.6397     12.2520      8.1545
H     14.5642     -3.0343     15.7227
H      7.3941     -2.1015      5.9711
C     14.9464      6.5767      8.3648
C     -1.6867      5.4358      5.7870
C      3.5989      0.6505      2.2676
C      1.6142      4.4647      5.3851
C     14.6569      6.2830      7.0033
C     15.5832      3.9504      0.5359
H     11.6895      5.5702      1.2224
H      4.8503      1.8380      0.8341
H      4.3624      0.2970     -0.9232
H     11.7095     11.3618      6.0098
H      6.0010     14.0271      4.6714
C     12.6002      8.9784      5.2807
C      8.7480      7.4519      9.7331
H     17.2784     -6.8787     14.2970
H     20.6446     -1.9069     14.5891
C      8.5950     11.7838      7.6904
H      9.5950      6.9639      1.9875
H     10.0143     10.7410      4.2256
C     12.2930      6.8789      7.5376
C      0.7236      3.3847      5.1742
O      7.8035      5.7806      4.4653
C     11.2534      8.0062      5.6289
C      6.4339     14.5311      7.3838
C      5.3643     15.2713      6.6349
C      3.6294      1.1560      6.1441
H      7.1768     -5.7261      8.3385
H      4.9369      3.5591      8.6738
H     12.5379      9.5521      7.3260
C     14.8454      4.7618      6.7970
C      3.9206      5.3623      5.0565
C      2.8024      2.7530      8.9700
H     20.7253     -3.1593     16.0481
C      8.3841     -5.5510     11.1272
H      3.6759      5.2527      8.2221
H     10.2309     -6.3994     11.1563
H      7.2173     13.8356      7.0382
C      4.0463      3.0490      4.6663
C     17.5209     -3.1467     18.2935
C      6.7293     12.8249      8.9085
C      7.5974     -3.4888      7.7269
C      5.3546      4.4397      8.1504
C      5.9561     14.2291      8.6669
H     -1.1072      3.5247      8.7161
H      9.8753      8.9789      9.1807
H      9.9812     12.7783      6.7809
H     19.1455     -2.9588     13.3481
H     -0.9766      3.4604      6.8356
C     14.7190     -2.7656     13.7639
H      2.0580      4.3440     10.2740
H     10.0865      9.6046      2.8330
