260

C      6.7930      8.9635     13.6581
C      4.2420      1.5244      7.1897
C      1.9267      2.8858      1.5907
C      6.8235      4.8015      2.1747
H     -2.3049      4.2022      2.0132
C      7.0288      3.4853      2.4258
C      3.5601      3.9261      5.5423
C      6.9789     -3.4498     10.3249
C      3.0434      7.3253     19.4713
C      6.2481      1.9173      4.1249
C      5.7493     -3.8515      9.3521
C      1.2344      8.7008     13.7646
N      0.2670      2.8301      6.6618
C     13.4672     -6.9171      0.6875
O     -1.6303      2.4725      1.6595
C      3.4739      3.9871      6.9295
C      2.5700      6.3726     17.4737
C      3.7150     10.7311     16.8148
H      1.0548      1.1356      9.4984
H     -3.4480      4.1804      4.0069
H      3.8507      7.1738     14.8922
C      3.8914      9.3700     16.3003
H      7.9801     -3.0506      9.6621
H      7.8132      3.2887      2.9271
H      0.0782      7.2734     10.8709
H     -0.8396      5.1483      6.5148
C      3.3923      2.8164      7.8063
H     10.5652     -2.6139     -0.5652
H      7.3265      1.1352      4.1344
O      1.9522     10.7149     14.7496
C      8.2155     -0.2642      8.6426
C     -6.1854      5.9666      9.4478
H      2.5024      6.1030      9.2789
C      5.9998      2.4644      2.7494
H     -6.5659      4.6942      7.0726
H      6.9881     -3.7123     11.3343
H      4.2778     -2.5119      8.2698
C      4.7317     10.8414     17.7857
C      9.9938     -4.6653      5.0747
O     14.6990     -4.1814      4.8890
C     -1.6756      7.9936      7.2965
C     -4.1650      7.8831     11.9006
C      7.5354      7.6984     12.8431
C      6.3909      6.8258     -0.8149
H      4.7663      3.6447      1.7203
H      5.1015     10.3820     14.9692
H      1.9026     -0.8945      2.6164
H     -5.2060      5.8533      7.6181
C     -5.7632      6.4619     10.8826
C      7.5576      5.5349      3.1228
H      8.9658      8.7625     14.6991
C     -1.1716      6.7163      5.3520
H      2.5871      8.7594     21.0058
H      4.1258     -0.0871      1.9701
H      2.4467      7.0655     13.7913
C      9.8458     -1.3178      7.4109
C     -7.3152      5.2662      9.2058
C      2.8638      7.7621     17.9196
C      4.5038      5.6871      0.4041
C      4.7624      9.4348     15.0712
H      9.0737     -5.5315      5.1321
H      8.3713      7.4572      3.0917
H      3.6492      0.9051     10.4104
H      6.3668     -1.3474      9.5248
H      5.8093     12.8172     17.5508
C      0.2291      3.6274      8.9275
C      0.5982      8.2536     12.3376
C      1.8891      1.8909      7.8972
C     12.2451     -6.4704      1.4741
H      5.4159      7.5627     -0.8933
H     -2.3139      2.6259      3.9628
C     -2.9217      7.7171     12.7671
O      0.8775     10.7607     12.6649
C      6.0371     -4.1658      8.1394
C      3.3399      8.4110     20.3140
C      3.3846      1.5126      9.5967
C      3.0721      1.3218      4.9149
H     12.2639     -3.0759      0.0462
H      6.0893     -0.4964      6.8511
C      3.4934      3.1732      3.4413
H      8.8092     -3.7185      6.4138
C     10.9929     -4.3540      0.4768
C     -1.6830      7.0690     11.8628
C      5.1866      2.2307      5.2218
H      4.4733     -0.2085      5.7291
H      8.5789      0.8144      8.6303
C      2.5707     -0.4105      8.8972
C      4.6571     -1.4972      8.0706
C     -2.3174      5.4817      3.5285
C      3.7472      9.6776     19.5014
C      2.0873      3.6322      2.9205
C      4.9383     -4.9582      9.9844
H      2.7000     -0.7852      9.9389
H      3.2098      8.1719     13.7139
H     14.9496     -9.0595     -0.4945
O      5.4417      6.7679      6.5982
C     13.4260     -4.7710      4.6073
H      3.5643     10.6703     19.8012
C     10.2298     -4.2114      3.5401
C     11.1196     -5.0214      3.0646
H      5.2806     -4.7307      7.4429
C     -2.9640      7.3876      7.7424
H      1.9424      1.8633      5.2687
H      0.9091      8.6281     10.2349
H      6.0935      1.3187      2.4397
H      0.7406      4.5695      9.2995
C      2.9302      1.8402      1.0991
C     12.8657     -4.0888      1.9411
C     -0.7045      3.1524      1.5784
C     -0.2001      4.0898      4.1978
C      7.3514     -2.0802      7.2184
H      1.8196     -0.4448      4.6380
H     -4.0163      7.3086      7.3291
H      2.8270      9.7887     19.0115
H     13.3087     -7.0269     -0.4108
O     12.8900     -3.2234      6.0558
C      6.1144     -1.2216      7.7486
C      0.6313      7.1443      6.9445
C      2.3054      7.9694     14.2880
C     13.4924     -5.1017      3.0688
H      8.9436     -0.6571      9.4066
C      2.9396      0.6272      3.5620
C      0.7008      2.4806      7.9368
C     10.5678     -2.3509      6.7746
C     -2.7805      3.5553      4.5942
C      5.5372     11.8743     18.0494
C      3.1012      4.0109      9.9924
C      0.6471      2.6001      1.2503
C     11.8485     -5.0744      1.6527
C      3.9382     -0.4364      8.4696
N      2.0757     -0.3110      3.6941
H      3.7835      1.9689     -1.2201
C      3.2374      1.6164     -0.2925
O      3.8666      6.4481     15.5112
C      9.5368      6.8032      0.8904
H      5.8204      9.6226     19.0078
H     -0.0912      1.6659      8.1518
C     -3.1069      5.1247      2.3921
C     -2.8807      7.3501      9.2110
H      1.9297      1.2522      7.1090
H      7.2993      4.5782      0.2830
H      7.3224     -3.8820      6.4691
C     11.2825     -3.0865      0.0587
H      3.9082     -5.2570      9.6381
H      2.3559      7.7946      9.2923
H     11.7777     -3.3339      4.2947
H      2.0132      9.4018     11.5462
H      2.3295      1.7461     -1.2024
H     -0.4342      3.8298      9.8299
C      1.8729      7.5371     15.5808
H     -8.5202      5.1673      9.7991
C      1.5296      8.4937     11.2654
H      2.5812      3.8799     10.9168
H      2.7490     11.0093     17.1950
C      4.5021      8.5289      4.4894
C      7.5896      6.9238      2.6360
C      8.1311      9.3951     14.3292
C      5.9995      8.6309     15.0236
C      3.9921      6.1910      6.4346
C      1.8086      5.0876      2.6044
C      5.7567      6.0508      0.1472
C      5.5835      7.4339      4.2722
C      8.0022      6.8846      1.2128
C      4.0601      5.3307      7.4711
C     14.2523     -7.8789      1.1607
H     -2.5894      5.5111      6.0138
C      6.0148      6.9499      5.4712
H      9.9706      5.6634      0.5405
H      0.3661      1.5972      1.5942
C      7.0877      5.4860      0.8862
H     -0.0188      3.2547      3.4402
H     -2.1464      6.8216      9.7542
O      7.5609      6.8142      5.7552
H     -3.9893      9.0444     11.9960
H      1.6809      3.0995      3.9164
H     12.5219     -3.0252      2.0796
H     16.3122     -8.4730      0.8220
C     -0.6154      7.6885     11.6840
C      2.6174      6.2892     15.9962
H      0.9727      6.6617      9.1583
C     -1.7027      4.4563      4.4969
C      0.2212      6.9243      5.5253
H      4.8992     -5.0601     11.0055
H      3.0186     -0.2975      6.4776
C      1.1564      5.8908      4.7679
H      2.5089     -0.0692      1.1326
H      3.7413     11.2950     15.8456
H      0.0929      8.0250      8.9086
C     -4.9554      6.2132      8.6368
C      4.6382      0.8637      8.4408
C      6.2233      7.3317      2.8461
C      9.5164     -3.4625      5.7681
C     12.6430     -6.5234      2.9357
C     -1.4605      6.5925      3.7233
H      3.8396      7.9779     21.0435
H      3.7590      5.5328     -0.2206
H     -3.0828      3.2860      5.4922
C      2.1665      0.9634      9.2454
C      0.5557      5.4046      3.5735
C      4.6027      3.2400      2.7586
H      1.6415      4.5415      7.8792
H      9.9820     -0.5337      7.9739
H      7.3701     -1.5715      6.3758
C      1.8341      6.8999      8.8754
C     -1.5253      5.3471      5.7050
C      3.0592      0.5446      1.9590
C      1.4525      4.8400      5.8017
C      1.9480      6.6791      7.4275
C     15.1797     -8.8838      0.5618
H     11.4372     -7.1164      1.3508
H      3.9247      2.2739      1.3680
H      3.4494      0.6657     -0.3708
H     11.4501     -2.2669      6.5670
H      5.3531      1.0412      3.8328
C     12.3162     -4.0050      5.2269
C     -4.0968      6.6956      9.6203
H      4.5648      4.8493      1.1396
H      8.8229      9.9373     13.4041
C      8.3175     -1.2708      7.4911
H     10.2533      6.7611      1.6430
H      9.1724     -2.5191      4.9944
H      6.6880      1.6536      9.7315
C     -0.1487      7.6588      7.8433
C      0.3719      4.1224      5.8308
O      8.0029      5.3586      4.1849
C     11.2925     -4.9219      5.8828
C      6.5577      1.8228      7.3713
C      5.4155      1.9115      6.4556
C      3.6562      0.6333      6.1545
H      7.7539      7.6815      5.7573
H      6.7259      2.8776      7.2844
H     -7.5520      3.5954      8.5250
H      8.3014     -3.6871      8.1341
H     12.6933     -3.4575      7.2385
H      6.4754     11.4596     18.3467
H      2.2971     -1.2946      8.4060
C      1.9043      5.2114      7.2287
H     -0.8222      4.2111      0.9401
C      3.6791      5.4601      5.1586
C      3.3501      2.9909      9.2544
H      8.0928     10.1193     15.3031
C     -4.7188      7.3324     10.7611
H      3.9363      5.6901      8.4763
H     -1.9680      6.6750     10.7451
H      7.8014      1.3544      7.3230
C      3.8071      2.7163      4.9158
C      4.8445      9.6220     18.5137
C      6.6806     -0.4402      8.9326
C      7.2580     -3.4977      7.5138
C     -7.0877      4.5067      7.9927
C      6.0068      1.1748      8.8556
H     -0.3611      3.6027      8.0302
H     -2.6717      8.2908      9.3514
H      0.7586      2.6403      0.1602
H      6.3317      9.9646     12.9254
H     -5.1319      5.6434     11.2762
H     -0.3361      2.2322      6.1641
C      1.4479     10.2311     13.5193
H      2.6442      4.8209      9.4806
H      9.7577     -3.2373      3.6619
