263

C     19.6111      9.1009     13.7169
C      4.2893      1.8547      7.1098
C      2.8094      3.1716      1.3790
C      6.8681      4.9267      2.3048
H     -3.1232      3.4436      3.0693
C      7.3071      3.4738      2.6533
C      3.1581      3.9179      5.6630
C      6.4662      9.6891     10.5299
C     16.1620      7.3080     19.2941
C      6.2831      2.1529      4.3361
C      6.2185      8.4526     10.0899
C     13.8548      8.9439     13.8173
N     -0.1044      2.9078      6.2465
C     13.4483     -7.1543      0.4255
C      2.9837      4.1615      7.1064
C     15.6324      6.2080     17.3326
C     16.6111     10.5894     16.4099
H      1.3769      0.8220      9.6060
H     -1.6529      2.5282      5.6266
H      5.2440      6.2052      3.9242
H      6.0446     11.5785     11.4269
C     16.6575      9.2015     16.1161
H      6.4859     10.1972      9.4582
H      7.7009      3.7492      3.7729
H     12.4531      6.9130     11.2030
H     -1.5517      5.2680      6.7921
C      2.7155      2.8786      7.7926
H      9.6203     -2.4456      0.1907
H      7.4135      1.8762      4.2096
O     14.3323     10.6699     15.2455
C      8.0722     -0.0678      8.6458
C      6.8852      6.2871      9.8077
H     15.7232     -6.5941      8.9423
C      6.3069      2.3776      2.5047
H      6.1741      4.8647      7.4023
H      7.4235      9.9567     11.1417
H      5.2000     -2.8635      8.4773
H      4.0955      8.0848      8.9937
C     17.7661     10.8763     17.2545
C     10.0621     -4.3951      4.8995
O     14.8537     -4.3776      4.7916
C     11.0460     -5.2918      6.9858
C      8.4363      8.3423     12.3033
C     20.2205      7.9937     13.0570
C      6.3544      7.3716     -0.7829
H      4.9424      3.7605      1.2469
H     17.3914     10.3302     14.4769
H      1.9573     -0.3364      3.2977
H      8.5585     -7.1208      8.3016
C      6.9453      7.2011     10.8851
C      7.4947      5.8506      3.1519
H     21.1002      8.9367     14.3638
C     -1.0307      6.6571      5.0325
H     15.4541      9.0313     20.5941
H      4.2434      0.8899      2.6685
H      5.0282     10.9328      9.9729
H     15.2260      7.8737     12.8689
C     10.0447     -1.0020      7.2761
C      5.7654      5.2793      9.6019
O      5.0663      3.0415     10.5935
C     15.9642      7.5822     17.7058
C      4.4030      6.3723      0.2921
C     17.1504      9.0765     14.7665
H      9.2889     -5.2540      5.1311
H      8.4700      7.8493      3.0088
H      4.1104      1.5010     10.3811
H      6.3777     -0.9238      9.4371
H     17.8997     12.8024     16.6780
C      0.1113      3.3808      8.4238
C     13.4234      8.3091     12.4214
C      1.8272      1.9940      7.0794
C     12.4184     -6.5389      1.4615
H      5.3575      7.9357     -1.1771
H     -3.3469      2.6810      4.9159
H      6.2233      4.5698      4.2543
H      4.6546     10.1784     11.3014
C      9.8435      8.0143     13.1737
O     15.0310     10.8795     12.9686
C      6.3875      8.2633      8.5779
C     16.2183      8.6884     19.8943
C      3.5085      1.4336      9.3075
C      3.4445      1.6801      4.9591
H     11.4134     -2.6070      1.3962
H      5.7583     -0.8122      6.6541
C      3.9901      3.0802      3.1898
H      8.7553     -3.2127      5.6185
C     10.7209     -4.1231      0.9400
C     10.6789      7.4937     12.1244
H      9.9451     -2.9672      7.7226
C      5.5662      3.1110      5.3846
H      8.2565      0.8570      8.0619
C      2.7943     -0.8247      8.7474
C      4.8336     -1.6867      8.1754
C     -2.3922      5.1327      3.7119
C     16.7789      9.7796     19.0604
C      2.6093      3.4975      2.7954
C      4.8139      7.9995     10.0685
H      2.3930     -1.7453      9.1675
H     -4.0410      5.3097      2.3101
H     15.7465     -8.7124     -0.5624
O      5.5932      6.8696      6.3610
C     13.5878     -4.8071      4.4822
H     17.4268     10.1564     19.9772
C     10.1591     -4.5008      3.5700
C     10.7479     -5.5136      2.8710
H      5.6159      8.9548      8.4354
C      9.8460     -5.4063      7.5293
H      1.4036      2.8045      4.6385
H     15.6697      7.5214     11.9350
H      6.2256      1.3874      1.8598
H      0.8000      4.1696      9.2030
C      3.4386      1.6038      1.2886
C     12.7254     -4.3253      2.1777
O      6.7758      4.4682     11.3687
C     -0.2853      4.0568      4.1425
C      7.4765     -1.7515      7.2670
H      2.6152     -0.6823      5.2232
H      9.1154     -4.8534      7.1555
H     15.8353     10.3121     18.6852
H     13.6667     -7.0599     -0.7593
O     12.8996     -3.3860      6.7273
C      6.2423     -1.1057      7.6577
C     13.4886     -5.8059      6.6755
C     14.9266      8.0776     14.1238
C     13.4748     -5.2749      2.9925
H      8.4403     -0.1222      9.5231
C      2.7522      0.9756      3.9310
C      0.4622      2.3663      7.3462
C     10.2483     -2.3154      6.7478
C     -2.2856      2.9219      4.7852
C     18.0253     12.3164     17.7340
C      2.6105      3.8150     10.0940
C     11.6216     -5.1673      1.6984
C      4.0132     -0.6172      8.2890
N      2.0894     -0.2161      4.4098
H      2.5504      1.3001     -0.7277
C      3.2398      0.8556     -0.1342
O     17.1934      5.9065     15.3186
C      9.3018      6.6754      0.9058
H     18.7343      9.3395     18.6127
H     -0.2547      1.5525      7.8651
C     -3.1963      4.6239      2.7029
C     10.2181     -5.0832      9.1289
H      2.1973      2.6878      6.2207
H      7.2503      4.8723      0.0541
H      7.5164      8.6017      6.4846
C     10.4739     -2.8558      0.7969
H      4.3230      8.8242     10.6080
H     14.9114     -5.2962      9.1231
H     -2.9265      5.9097      5.5821
H     12.2881     -2.9347      4.3365
H     14.4383      7.6759     10.4353
H      2.4885      0.1946      0.2773
H     -0.3786      2.7455      9.1951
C     14.7863      7.4797     15.4115
H      4.6367      5.7070      9.4810
C     14.7992      8.0784     11.5160
C      5.4935     10.5550     10.8997
H      2.1166      3.4419     10.8896
H     16.2500     11.2125     17.1122
C      4.2372      8.4007      4.3297
C      7.6765      7.2093      2.5427
C     20.5291      9.7151     14.7139
C     18.5767      8.4074     14.6814
C      4.3940      6.2571      6.3049
C      1.9977      4.8981      2.6141
C      5.6562      6.4687      0.2360
C      5.3427      7.2293      4.0398
C      7.7588      6.7167      1.0144
C      3.9831      5.0106      7.6748
C     14.4773     -7.8289      1.1158
H      8.0955      6.5452      4.6286
C      6.1369      7.2825      5.2426
H      9.7357      5.6962      0.5664
C      6.7854      5.6824      0.9200
H     -0.7203      3.3250      3.5328
H     11.2801     -5.3863      9.6673
O      7.2504      7.6205      5.3167
H      8.6913      9.2159     11.9975
H      1.9578      2.7608      3.4120
H     12.4138     -3.2524      2.3845
H      3.8038      5.2285      0.6413
H      4.3854      4.8860      4.3567
C     12.1853      7.3998     12.1724
C     15.7565      6.1545     15.7775
H     13.8523     -6.6853      8.9553
C     -1.7983      4.3604      4.5792
C      0.4022      6.8371      5.2234
H      4.7564      6.9728     10.4298
C      1.4099      5.6517      4.7613
H      3.0504     -0.0837      1.9758
H     16.5070     11.3945     15.7359
H     12.2616     -6.2267      8.4939
C      8.1135     -6.6750      9.1643
C      4.4651      1.0838      8.3310
O      6.0763      4.3175      5.2026
C      6.0393      7.5640      2.7962
C      9.6340     -2.8753      5.2655
C     12.6954     -6.5320      2.8893
C     -1.5715      6.3864      3.6350
H     17.1852      8.3631     20.6530
H     15.0869      9.1268     11.7806
H     -1.6987      2.8459      3.9580
C      2.3754      0.3692      9.3959
C      0.6435      5.0876      3.4224
C      5.1789      3.1728      2.2553
H      8.1875     -4.5579      9.4187
C      5.8270      4.1354     10.4942
H     10.6825     -0.5279      7.9415
H     13.9719     10.7355     16.2213
H      7.1275     -2.7362      6.7185
C     14.8120     -6.2953      8.7120
C     -1.9117      5.4924      5.7307
C      3.2764      0.6910      2.5547
C      1.6444      4.4869      5.5276
C     14.8151     -6.3932      7.2603
C     15.2919     -8.9189      0.4059
H     11.3607     -7.3684      1.2519
H      4.6533      1.6804      1.1956
H      4.2109      1.0572     -0.9909
H      5.8137      1.1376      4.7657
C     12.3349     -3.8238      5.2839
C      8.8609     -5.4631      9.6676
H     17.2516      6.8845     15.2567
H     20.6561     10.8256     14.6671
C      8.6516     -1.1545      7.7470
H      9.9684      6.6546      1.9513
H     10.0630     -2.3583      4.5606
H      6.2177      1.7833      9.4713
C     12.3397     -5.9116      7.4412
C      0.5197      3.6099      5.2365
O      7.9685      5.7070      4.3333
C     11.3357     -4.9924      5.5132
C      6.4938      1.6996      7.3349
C      5.4070      2.5571      6.7249
C      3.6376      0.9978      6.1620
H      6.5104      7.1648      8.2714
H      5.3669      3.6721      8.7662
H      8.4616      9.0330      7.8467
H     12.0592     -3.6714      7.3207
C     14.6945     -7.8572      6.8869
C      3.7456      5.3461      5.0738
C      3.1197      2.8728      9.0817
H     20.4917      9.4272     15.7125
C      8.3991      7.3317     11.1030
H      3.3697      5.2712      8.5953
H     10.5691      6.2500     12.0543
H      6.7155      0.9756      6.5278
C      3.9813      3.0216      4.6972
C     17.6944      9.3523     18.0783
C      6.6383     -0.2562      8.7412
C      7.5125      9.0823      7.7341
C      5.3812      4.5434      8.0577
C      5.9408      1.0183      8.7161
H     -0.7050      4.3023      8.2495
H     10.2780     -4.0534      9.3769
H      9.8597     -0.1817      6.4834
H     19.1163      9.8075     13.2457
H      9.0216      6.3460     11.4261
H     -0.8692      3.3638      6.7079
C     14.2388     10.4687     13.8921
H      1.6499      4.3723      9.9291
H     10.1339     -3.4864      3.1151
263

C     19.7281      9.1456     14.1075
C      4.2004      1.8659      7.2298
C      2.9416      3.2253      1.3856
C      6.9018      4.7679      2.2626
H     -3.5534      3.6563      2.6298
C      7.4777      3.5636      2.6028
C      3.2055      4.2231      5.2900
C      6.7774      9.7973     10.5103
C     16.0884      7.1247     19.4679
C      6.3018      2.1336      4.2207
C      6.1414      8.3873     10.0140
C     13.8149      8.5188     13.6910
N     -0.3706      3.1011      6.2772
C     13.7270     -6.9558      0.4036
C      3.2235      4.1378      6.9477
C     15.6321      6.2556     17.3057
C     16.6071     10.7219     16.4624
H      1.8905      0.8248     10.4082
H     -2.0442      2.2236      5.4644
H      5.1508      6.4438      4.3223
H      5.8777     11.6334     11.1871
C     16.4451      9.2365     15.9820
H      6.9886     10.1667      9.5792
H      7.9931      3.5865      3.7187
H     12.3985      6.7993     10.8881
H     -1.3719      4.7892      6.6223
C      2.9053      2.6026      7.4425
H     10.2223     -2.3647      0.3508
H      7.2812      1.9754      4.5457
O     14.2705     10.7912     15.1591
C      8.3616      0.0089      8.6104
C      6.8753      6.0944      9.9189
H     15.8836     -6.9504      8.9764
C      6.5489      2.6058      2.8359
H      6.2448      4.1488      7.4768
H      7.4851      9.6771     11.3090
H      4.1280     -2.4192      8.6704
H      4.3556      7.1803      9.5157
C     17.5338     10.9699     17.5454
C     10.0025     -4.3314      5.0199
O     14.7633     -4.4235      4.7966
C     11.1548     -5.2473      7.0399
C      8.6148      8.2800     12.3497
C     20.2258      7.8522     13.2619
C      6.2197      7.1163     -0.6218
H      5.0292      3.5630      1.4252
H     17.7502     10.3329     14.6949
H      1.7641     -0.4612      3.5518
H      7.8836     -6.7513      8.2208
C      6.9518      7.0948     11.0017
C      7.4045      5.8744      3.1184
H     21.8978      9.2648     14.8020
C     -1.2472      6.5611      5.0487
H     15.1393      8.9012     19.9965
H      4.5122      0.1788      2.5520
H      5.1728     10.6974      9.6720
C      9.9367     -0.9979      7.1530
C      5.6776      5.2572      9.2392
O      5.2629      3.2003     10.4770
C     15.8527      7.6035     17.9147
C      3.9404      6.3271      0.0937
C     17.2741      9.3326     14.7355
H      9.2235     -5.2780      5.3979
H      8.1547      7.9818      3.4020
H      3.5271      1.3258     10.4116
H      6.6603     -0.7872      9.9844
H     17.7323     13.0405     16.9691
C      0.0646      3.1552      8.7654
C     13.2672      8.1938     12.4243
C      1.5174      2.0654      6.7509
C     12.3876     -6.4072      1.4095
H      5.7525      7.6825     -1.4305
H     -3.3109      3.6950      5.8298
H      6.6798      4.0135      4.7964
H      5.0111     10.0846     11.5530
C     10.0105      7.9012     13.1232
O     15.0930     11.0980     13.2220
C      6.3708      8.2948      8.3264
C     16.1393      8.5852     19.9056
C      3.2995      1.4701      9.3718
C      3.4255      1.7565      4.7954
H     11.2357     -2.2274      1.6312
H      5.9222     -0.5676      6.9693
H      7.1726      3.4698     11.6818
C      4.0579      3.4858      3.3821
H      8.6730     -3.2496      5.5951
C     10.6746     -4.1820      1.0724
C     10.9303      7.3468     12.1105
H     10.7416     -2.9991      7.2273
C      5.5415      2.7890      5.1391
H     18.5249     12.4374     18.4864
H      8.4023      0.9041      8.0522
C      2.6145     -0.5903      9.0265
C      4.7980     -1.7325      8.1434
C     -2.3358      4.9384      3.2603
C     16.4687      9.8759     19.1621
C      2.6553      3.5840      2.6203
C      4.6245      8.0910     10.1861
H      2.2873     -1.5008      9.0363
H     -3.4760      4.9417      1.5527
H     15.6814     -9.0086     -0.9145
O      5.4504      6.8757      6.3570
C     13.5960     -4.8560      4.5977
H     16.2845     10.5510     19.9167
C     10.3041     -4.3229      3.6702
C     10.9387     -5.3624      3.1084
H      5.3368      8.5566      7.8345
C      9.8905     -5.5444      7.6340
H      0.8857      2.6353      4.8558
H     15.2973      7.3272     11.9040
H      6.4452      1.6017      2.1196
H      0.7456      3.8803      8.6168
C      3.8783      1.7156      1.1302
C     12.9221     -4.3574      2.1708
O      6.7364      4.5576     11.4113
C     -0.3157      4.0699      3.9004
C      7.4387     -1.9534      7.3419
H      3.1032     -0.7256      4.6296
H      8.8619     -5.3342      7.0569
H     15.5833     10.3467     18.7701
H     13.8266     -6.7588     -0.5819
O     12.8116     -3.5717      6.5440
C      6.3649     -1.2132      7.7891
C     13.3386     -6.0718      6.6151
C     15.1387      7.8523     13.9368
H     15.4946      8.7185     15.4461
C     13.6843     -5.3689      3.0569
H      9.1608     -0.1785      9.6197
C      2.8859      1.0099      3.7055
C      0.4303      2.6844      7.2236
C     10.4945     -2.2319      6.4760
C     -2.6396      3.2355      5.0621
C     18.0313     12.3344     17.6205
C      2.8288      3.6970      9.9798
C     11.6183     -5.0259      1.8899
C      3.9036     -0.6393      8.3862
N      2.2619     -0.1323      4.3240
H      3.0962      1.4473     -0.8752
C      3.6637      1.0797     -0.1058
O     16.9421      5.6752     15.4563
C      9.3483      6.7457      0.7896
H     18.6011      9.1062     18.0915
C     -3.4216      4.5916      2.6300
C     10.0604     -5.1751      9.1506
H      6.7302      5.0522      0.2279
H      7.4629      8.9013      6.6472
C     10.3864     -2.9316      1.2615
H      3.9956      8.9875     10.4005
H     15.6228     -5.5762      9.0948
H     -2.8904      5.7162      5.9830
H     11.8678     -3.2734      4.3016
H     14.7210      7.9130     10.8712
H      2.6254      0.5094      0.1599
H      0.2876      2.3512      9.5116
C     15.0317      7.4792     15.3128
H      4.5941      5.6624      9.3812
C     14.7121      8.0856     11.7620
C      5.5704     10.7250     10.8952
H      2.2408      3.1852     10.8174
H     15.7488     10.9409     17.1102
C      4.0685      8.3288      4.3710
C      7.3637      7.1819      2.8163
C     20.9550      9.7563     15.0032
C     18.5651      8.4946     14.6976
C      4.2105      6.0479      6.4374
C      1.7706      4.8789      2.4735
C      5.3749      6.2912      0.2282
C      5.1882      7.4478      3.9468
C      7.7830      6.7554      1.2677
C      4.1831      4.8922      7.5712
C     14.6529     -7.8840      0.9163
H      7.6647      6.1336      4.9584
C      6.0249      7.4870      5.3450
C      6.6441      5.5631      1.0610
H     -0.3742      3.6867      2.9152
H     11.1676     -5.5436      9.4241
O      7.2995      7.7727      5.3502
H      8.7600      9.3809     11.5630
H      1.9314      2.5206      2.8281
H      3.6705      5.2299      0.3430
H      4.7193      5.2812      4.3624
C     12.1322      7.6366     11.7129
C     15.7944      6.2233     15.8235
H     14.0472     -6.4830      9.3297
C     -1.6461      4.3087      4.5636
C      0.3445      6.8034      5.1716
H      4.3952      7.8483     11.1868
H      3.2535     -0.1086      6.1105
C      1.2293      5.6375      4.7588
H      2.6276     -0.0412      1.9889
H     16.8682     11.0278     15.4551
H     12.6287     -6.3694      8.4267
C      7.9932     -6.6724      9.1942
C      4.4442      0.9312      8.5791
O      6.1405      4.2498      5.4367
C      5.9503      7.5558      2.6926
C      9.6409     -2.8831      5.3589
C     12.8109     -6.7072      2.7513
C     -1.4167      6.1648      3.4199
H     16.3839      8.8430     21.0335
H     15.1601      9.0067     12.0486
H     -3.3395      2.8950      4.2759
C      1.9809      0.6612      9.0641
C      0.6022      5.2676      3.3550
C      5.1222      3.1311      2.4035
H     14.2559     -8.3307      7.6757
H      8.3065     -4.6170      9.1401
C      5.7695      4.2911     10.5014
H     10.8253     -0.7170      7.9649
H      7.1560     -1.6743      6.2442
C     14.9628     -6.3132      8.7163
C     -1.9235      5.3138      5.7283
C      3.5277      0.6819      2.3055
C      1.7382      4.4673      5.3779
C     14.7939     -6.5075      7.1624
C     15.6939     -8.7709      0.4071
H     11.5186     -6.9123      1.1068
H      4.8814      2.0693      1.0912
H      4.0332      0.4077     -0.6732
H     11.3752     -1.6940      6.0147
H      6.2195      1.1192      4.0944
C     12.3311     -3.9356      5.2008
C      8.7656     -5.4378      9.7543
H     17.3279      6.3988     14.8417
H     20.8146     10.8006     14.9792
C      8.6428     -1.1583      7.6523
H      9.9999      6.6240      1.7434
H      9.7679     -2.6871      4.1273
H      6.0941      1.9567      9.4439
C     12.4613     -5.7866      7.6094
C      0.5500      3.5072      5.2014
O      7.7801      5.5421      4.3282
C     11.2819     -4.9776      5.6052
C      6.3685      1.3319      7.2513
C      5.5160      2.3270      6.6107
C      3.6695      0.9880      6.2019
H      6.6387      7.2854      8.4382
H      4.8719      3.2056      9.0923
H      8.4308      9.1519      8.1729
H     12.2490     -2.9267      6.9111
C     14.8524     -7.9325      6.8819
C      3.7918      5.4626      4.9413
C      2.8164      2.7695      8.9000
H     20.5434      9.4189     16.0415
C      8.3348      7.2786     11.1595
H      3.7697      5.2472      8.4024
H     10.5146      6.9438     11.3300
H      6.6713      0.7557      6.2768
C      4.1260      2.9979      4.7357
C     17.5766      9.6980     18.1015
C      6.8693     -0.1954      9.0032
C      7.5345      9.2785      7.7134
C      5.4112      4.1130      8.1860
C      5.9714      1.0289      8.6097
H     -0.8119      3.9333      8.5760
H     10.5024     -4.0887      9.2054
H     10.0105      0.0599      6.8204
H     19.1219      9.8983     13.5010
H      8.5507      6.2990     11.5838
H     -1.3889      3.3614      6.8216
C     14.5263     10.2543     13.9686
H      2.5126      4.6610      9.8822
H     10.4573     -3.3208      3.0054
