263

C     20.0143      8.9506     13.8195
N     -1.7132     10.2593      1.6770
C      3.8800      1.6349      6.8813
C      1.9704      3.0131      1.2706
C      7.2513      4.8871      2.5612
H     -3.3259      3.9690      2.2014
C      6.9081      3.7151      2.9517
C      3.4181      3.9383      5.3642
C     -6.2406      9.9118     11.0460
C     16.1823      7.1883     19.3308
C      5.7717      1.7071      3.6261
C     -6.9638      8.9325     10.1758
C     13.7594      8.3862     13.7985
N     -0.1388      2.3136      6.1695
C      0.4426      5.7151      0.5316
O     -1.4131      2.5737      1.4124
C      3.3193      3.7772      6.9618
C     15.6734      6.0604     17.3620
C     16.5017     10.5209     17.0527
H    -11.6136     13.2058      9.5953
H     -3.2385      2.9027      3.7823
H     17.0527      6.5593     14.9991
H     -6.9000     11.2641     12.8025
C     17.2203      9.3687     16.4778
H     -8.7986      7.4301     10.9988
H     -5.6375     10.7574     10.6404
H      6.4134      3.9583      3.8800
H     13.0849      7.3406     10.3621
H     -1.2290      5.1856      6.9132
C      2.8206      2.6071      7.8215
H      6.6811      0.9485      3.8295
C     -4.7795     13.0000      8.7321
C      6.6745      5.7435      9.9431
H      2.3091      0.1817      6.0568
H      2.0179      7.7273      9.2383
C      6.1037      2.4979      2.4258
H      6.0784      4.3558      7.6169
H     -5.7587      9.1854     11.5805
H     -8.0237     11.9903      9.4632
H     -8.0780      7.3320      9.5998
C     17.5198     10.8781     18.0250
C     -2.9323      8.2822      5.2042
O      1.8475      8.6202      4.8473
C     -1.4429      7.7821      7.1170
C      8.8140      8.1828     12.0004
C     20.6587      7.7277     13.1436
C      6.4472      7.1777     -0.6752
H      5.3182      4.1145      1.2496
H     17.9644     10.5496     14.9020
H      1.6627     -0.8799      3.2571
H     -5.3501      6.1153      7.9400
C      7.3096      6.3489     11.3832
C      7.5311      5.8557      3.7027
H      8.0915      7.2269      2.1700
C     -1.0333      6.6550      5.2681
H     15.6681      8.2916     20.9400
H      2.7522      0.1390      1.3434
H     -7.2647     11.8162     11.0865
H     15.8184      7.0472     13.4770
C     -3.1967     11.3375      7.4638
C      5.4786      5.7639      9.4147
C     16.0288      7.7060     17.8497
C      4.7728      5.8264      0.3691
C     17.8118      9.4810     15.2730
H     -3.3706      7.1411      5.4983
H      8.5217      7.7020      3.9537
H     -9.1227     13.9621     10.3462
H     -6.4172     12.3608      9.7913
H     -1.5276      1.5730      1.0463
H     17.7624     12.5348     16.6206
C     -0.0669      3.2336      8.4909
C     13.2914      8.3583     12.2759
C      1.7459      1.6120      7.6435
H     -2.8427      8.8861      9.5717
C     -0.6332      6.3474      1.6131
H      6.3207      8.0835     -1.1637
H     -1.8241      2.2954      4.6776
H     -7.9964     10.2145     11.7707
C     10.0717      7.3642     12.5073
C     -6.2687      8.6171      8.7670
C     16.5615      8.2969     20.3541
C     -9.5635     14.0535      9.4395
C      2.8582      1.5358      4.5781
H     -2.6074     10.6578      1.4727
H     -1.5465     10.6319     -0.1999
H     -6.4979     12.1091      6.8586
H     -9.8549     16.5650     10.9708
C      3.5799      3.3398      2.8567
H     -4.7399      8.7811      6.2996
C     -2.0439      8.2812      0.6600
C     11.2437      7.0280     11.5326
H     -2.8739      9.5376      7.1933
C      5.1586      2.3888      4.8252
H      3.7078      0.0440      5.2428
H     -4.1136     13.6899      8.5152
C    -10.3056     12.0355      8.3226
C     -7.9115     11.4723      8.4413
C     -2.1105      5.2743      3.5777
C     16.9319      9.4938     19.7508
C      2.2629      3.4630      2.7332
C     -8.0723      8.1250     10.4290
H     15.6792      8.6547     14.1679
H     -2.2575      4.8113      1.8236
H      1.9413      4.9183     -1.0631
O      5.6837      6.4920      6.7110
C      0.7547      8.0507      4.2572
H     -8.2453     10.6542      9.1509
C     -2.7393      8.5369      3.7151
C     -2.1803      7.6368      2.9670
H     -7.1158      8.5463      8.0150
C     -2.6083      7.7898      7.9776
H      2.4548      4.0785      4.7213
H     14.1263      9.2817     10.3225
H      6.3202      2.0639      1.5080
H      0.7758      3.1120      9.2272
C      2.9634      2.0194      1.0200
C      0.1466      8.4536      2.0616
C     -0.3288      3.1794      1.3232
C     -0.1641      3.8513      4.1302
C     -5.5429     10.8483      7.7311
H     -3.4082      6.9856      7.5702
H     16.1375      9.6885     19.1762
H      0.7939      6.0136     -0.4519
O     -0.1279      9.8263      6.2390
C     -6.6984     11.7597      7.9668
C      0.8272      7.2088      6.8171
C     15.0171      7.8114     13.9876
H     15.7090      7.9280     15.9159
C      0.6454      7.5078      3.0726
H     -4.2116     12.4904      9.7665
C      2.6249      0.5652      3.5359
C      0.3950      2.0280      7.6429
C     -3.1537     10.2022      6.5395
C     -2.5706      3.0175      4.7429
C     18.2179     12.0856     17.6862
C     -9.8316     16.6778      9.9473
C      0.7439      2.5835      0.6751
C     -1.2485      7.8502      1.7912
C     -9.0353     12.2234      7.8894
N      2.2059     -0.5421      4.0596
H      3.7412      2.3272     -1.0244
C      3.0143      1.7824     -0.4584
O     16.9303      5.8749     15.5766
C      9.5535      6.3451      0.3918
H     19.0128     10.0787     18.9986
H     -0.4282      1.1628      8.0975
C     -3.0046      5.0183      2.5291
C     -2.9715      7.8102      9.3402
H      1.9463      1.0740      6.8069
H      7.5293      4.8457      0.3358
H     -4.5814      8.7863      7.7698
C     -2.0104      9.6297      0.3840
H      4.7223      5.5074     10.1833
H      1.5286      6.2451      9.3699
H     -1.1318      9.5789      4.3707
H     14.5888      9.8964     12.0299
H      1.9643      2.2276     -0.7123
H     -1.1618      2.9614      8.4514
C     15.0325      7.3220     15.5454
H     -0.8934     10.6573      1.2572
C     14.1877      9.0159     11.4695
C     -7.1444     10.8375     11.6587
H     15.3854     10.4192     17.7311
C      4.3615      8.1765      4.3487
C      7.6281      7.2292      3.4270
C     21.1859      9.5999     14.4750
C     18.9697      8.7212     15.0216
C      4.3175      5.9859      6.3574
C      1.6933      4.8792      2.5427
C      6.0679      6.2032      0.2969
C      5.7198      7.5364      4.6241
C      8.2018      6.6890      1.0652
C      4.0678      4.9321      7.5820
C      1.5576      5.1665      0.9467
H     -2.6159      5.5711      6.0122
C      6.5092      7.1215      5.8031
H      9.5814      5.2123      0.4145
H      0.8200      1.9748     -0.2226
C      7.1767      5.6581      1.2767
H      0.0683      3.2236      3.2157
O      7.6695      7.2297      6.1686
H      9.0027      9.2373     11.9165
H     22.0227      9.4133     13.8614
H      1.6550      2.8848      3.6790
H      3.3127      5.2948     -0.4257
H      4.6816      5.7625      4.1869
C     12.5466      7.2533     11.5949
C     15.6075      5.9401     15.8841
H      3.3459      6.5633      9.2544
C     -1.6223      4.3706      4.6056
C      0.4950      6.9136      5.3155
H     17.4365      7.9927     20.9478
C      1.3173      5.7324      4.8691
H    -11.0669     11.1115      8.4370
H      1.5073      0.8317      2.0393
H     16.8025     11.2839     16.3660
H      0.3820      7.4821      8.7246
C     -5.1070      6.0513      8.9922
C     -8.6781     13.6792      8.0604
C      6.4484      8.0750      3.2360
C     -4.0458      9.3459      5.6784
C     -0.2774      6.2192      3.0393
C     -1.4546      6.5677      3.7437
H      4.3569      6.7958      0.0372
H     -3.3583      2.7799      5.3995
C    -10.8870     13.4000      8.7984
C      0.6450      5.1597      3.5592
C      4.8805      3.2510      2.0431
H      1.5842      4.4116      8.0467
H     -5.7336      7.7106      8.6803
H     -2.2981     11.9476      7.4629
H     -5.5568     10.5549      6.5423
C      2.3396      6.8902      8.8201
C     -1.5130      5.3898      5.8482
C      2.5583      0.8581      2.1568
C      1.1926      4.6362      5.9170
C      2.1274      6.4102      7.3176
C      2.3990      4.7060     -0.1244
H     -1.4825      5.8070      1.0296
H      3.2369      0.8628     -0.6661
H     -2.3201     10.3087      5.7428
H      4.9279      1.1217      3.1705
C     -0.5765      9.0209      5.0858
C     -4.1559      7.0695      9.7116
H      4.4370      5.2407      1.2242
H     21.0853     10.5139     15.1836
C     -4.4289     11.8391      7.6767
H     -4.4346     10.2067      4.9734
H     -7.3225     14.8641      8.9952
C     -0.1686      7.4473      7.9117
C      0.7520      3.4024      5.4632
O      8.1960      5.2892      4.6917
C     -1.6168      7.8988      5.6739
C     -6.7606     14.7839      7.0814
C      5.1232      2.0785      6.1697
C      3.1065      0.7909      5.8348
H      8.8035      5.9990      5.1262
H     -6.2921     15.8783      7.4888
H      5.1522      3.6402      8.7825
H     -4.4689      9.8572      9.2337
H     18.6978     13.0923     18.1183
C      1.8047      4.9456      7.2085
H     -0.3132      4.2060      1.3815
C      4.2003      5.3513      5.0113
C     -9.7625     15.5543      9.2449
H     21.3540      8.7571     15.0775
C      8.3956      7.1787     10.9422
H      3.5265      5.7062      8.3201
H     10.9313      7.3189     10.4235
H     -6.1301     13.8548      6.8009
C      3.8746      2.8049      4.4290
C     17.9571     10.0375     19.1921
C     -6.2373     12.8437      8.7581
C     -5.2015      9.6148      8.3570
C      5.2503      4.7212      8.3855
C     -7.1337     13.9972      8.3878
H      0.0251      4.2176      8.0953
H      3.1750      3.9405     -0.4622
H     19.3252      9.2876     13.0901
H      7.7146      5.4884     12.0958
H     -1.0638      2.8231      6.3888
H     -9.9620     17.6425      9.3711
H     -3.3746      9.3339      3.0965
