262

C     19.6214     -3.9180     13.7552
C      4.0106      1.8877      7.1474
C      2.2991      3.1211      1.3930
C      6.9533      4.7460      2.2548
H     -3.2863      3.3095      2.7958
C      7.0579      3.2819      2.7046
C      3.1802      4.3804      5.4954
C      6.6530     -3.2727     10.5422
C     16.1496     -5.6313     19.4039
C      6.1669     14.8452      4.2891
C      6.2432     -4.6089      9.9344
C     13.8760     -4.0519     13.8211
N     -0.0999      3.3822      6.4318
C     13.5841      6.1837      0.6463
C      3.1706      4.2656      7.0307
C     15.6180     -6.5469     17.2212
C     16.5174     -2.3042     16.6348
H      1.0340      0.8228      9.4478
H     -2.4954      2.9579      6.0192
H     17.7640     -6.8737     16.0306
H      5.5312     -1.5818     11.3992
C     16.8159     -3.6055     16.1453
H      7.1137     -2.5230      9.8254
H      8.0692      3.3092      3.5926
H     12.7205     -5.6921     11.0180
H     -1.2647      5.3168      6.8240
C      2.9619      2.7377      7.5086
H      9.9440     10.4015      0.4261
H      7.0248     14.5564      4.7149
O     14.5748     -2.2193     15.2497
C      7.9516     12.8398      8.6115
C      7.0553      6.0441      9.9969
H     15.5490      6.8633      9.8428
C      6.0508      2.3515      2.7765
H      6.1888      4.7341      7.1533
H      7.2988     -3.1444     11.6066
H      4.0506     -2.5007      8.4004
H      4.7224     -5.7120     10.3952
C     17.7555     -2.1764     17.4406
C     10.0044      8.7487      5.0784
O     14.7998      8.7368      4.7200
C     11.2863      7.4284      7.1169
C      8.7910     -4.5735     12.1835
C     20.4066     -4.8395     12.8545
C      6.5142      7.3565     -0.8328
H      4.6123      3.3648      1.4058
H      1.5645     -0.6243      3.4753
H      8.4039      5.7460      8.1858
C      6.9343     -5.6130     10.7601
C      7.3873      5.7203      3.0670
H     21.6989     -3.7659     14.7547
C     -1.0942      6.6522      5.0929
H     15.2238     -3.9266     20.4044
H      4.1191      0.7087      2.2051
H      4.7835     -1.9338     10.0604
C      9.7636     11.6697      7.4345
C      5.5965      5.3537      9.3705
C     15.8912     -5.2158     17.8552
C      4.3750      6.5231      0.1225
C     17.5749     -3.6493     15.0019
H      9.1264      8.0677      5.2463
H      8.3257      7.3905      3.6961
H      3.7136      1.3967     10.5542
H      6.2221     12.5774     10.1045
H     17.4338     -0.3047     17.1695
C     -0.1421      3.3888      8.7949
C     13.4635     -4.5132     12.4434
C      1.6952      1.7209      7.3851
C     12.3284      6.4756      1.4650
H      5.5317      7.9531     -0.7208
H     -3.7353      2.7589      4.7784
H      6.0700     17.4247      3.7276
H      4.7565     -2.7926     11.4169
C      9.7955     -5.1864     13.0457
O     15.2835     -2.0519     13.1425
C      6.1120     -4.5886      8.5370
C     16.3026     -4.3002     20.0721
C      3.5728      1.4347      9.4989
C      3.2458      1.8002      4.6713
H     11.4489     10.4221      1.7623
H      6.0235     -0.6060      6.8416
C      3.9294      3.6227      3.3598
H      9.0131     10.5892      5.8309
C     10.7597      8.4659      0.9793
C     11.1071     -5.5063     11.9967
H     10.4011      9.3860      6.9774
C      5.3695     15.7610      5.1471
H     18.8053     -0.4038     18.3322
H      8.2617     13.8613      8.3121
C      2.7232     -0.6786      8.5684
C      4.6784     -1.6584      7.9270
C     -2.3151      5.1148      3.4229
C     16.5420     -3.1277     19.0361
C      2.5124      3.6544      2.8442
C      4.6990     -4.7816     10.2074
H      2.5434     -1.7392      8.8184
H     16.1653     -4.2102     14.2649
H     -3.9064      5.1032      1.9103
H     14.7020      3.9788     -0.5822
O      5.4637      6.6559      6.4585
C     13.4880      7.9849      4.3985
H      4.1372     -2.0277      6.9116
C     10.1071      8.6612      3.6288
C     10.9558      7.7138      2.9891
H      5.1586     -3.9863      8.5298
C     10.0812      7.5867      7.4958
H      1.3050      2.5292      5.1854
H     14.6517     -5.7390     11.1015
H      5.8824      1.6332      2.1440
H      0.3273      3.7005      9.7441
C      3.0929      1.8464      1.3582
C     12.9643      8.5916      2.2172
C     -0.1090      4.2040      4.1038
C      7.2688     -2.2297      7.4960
H      1.2155      0.4871      4.7672
H      9.2280      7.1525      7.0329
H     15.8815     -2.4477     18.7422
H     13.7079      6.3554     -0.4546
O     13.0805      9.2024      6.2661
C      6.0202     -1.2753      7.7316
C     13.5327      6.9038      6.7591
C     15.2653     -4.9571     14.1051
H     15.6213     -4.4538     15.9452
C     13.4694      7.5283      2.9720
H      8.7607     13.2353      9.5979
C      2.6556      1.1208      3.6119
C      0.4093      2.6876      7.6687
C     10.4789     10.5677      6.8821
C     -2.4560      3.2693      4.9683
C     18.1959     -0.9797     17.6978
C      2.8651      3.6605      9.8866
C      1.0909      2.4874      1.2054
C     11.7661      7.8050      1.6704
C      3.9223     -0.4359      8.1046
N      1.9123      0.0669      4.1675
H      2.4022      1.8894     -1.0052
C      2.7699      1.1497     -0.1057
O     17.0139     -6.8368     15.3530
C      9.2495      6.5754      0.8760
H     -0.2701      1.6682      7.8421
C     -3.2480      4.5213      2.7704
C      9.9569      8.0168      8.8976
H      1.8669      1.4514      6.3096
H      7.8052      5.0623      0.0282
C     10.7947      9.9284      0.9439
H      4.0699     -5.0805      9.3408
H     14.4162      7.9274      8.4484
H     12.2224      9.8110      4.4836
H      2.4559      0.0368     -0.1603
H     -1.1447      3.1748      8.8131
C     15.0240     -5.3071     15.5268
H      4.6498      5.8100      9.8501
C     14.4991     -4.7542     11.4205
C      5.4402     -2.4136     10.7840
H      3.4657      3.5453     10.8115
H     15.4270     -2.3044     16.9343
C      4.3294      8.3057      4.4644
C      7.5559      7.0967      2.8666
C     20.6931     -3.3303     14.5492
C     18.6396     -4.5287     14.7609
C      4.1810      6.1343      6.2682
C      1.8001      4.9439      2.5304
C      5.7196      6.0528     -0.1260
C      5.4514      7.4847      4.1481
C      7.9561      7.1248      1.2177
C      4.1894      5.1712      7.3600
C     14.4644      5.1645      1.1408
H      8.9610      5.6689      4.4669
C      6.1078      7.0646      5.3655
H      9.6456      5.5162      0.4415
H      1.2127      1.5069      1.1486
C      6.7304      5.4043      0.7706
H     -0.8978      3.5676      3.1861
H     11.0318      7.8839      9.3480
O      7.3509      7.0154      5.5022
H      8.8481     -3.4233     12.2348
H      1.9519      3.1233      3.6484
H     12.5939      9.4427      2.6624
H     16.2552      4.5705     -0.2733
H      4.8960      5.3766      4.4534
C     12.3792     -5.3251     12.0621
C     15.8000     -6.6991     15.8205
H     13.8549      6.5526      8.8344
C     -1.6586      4.4592      4.6804
C      0.2602      6.8265      5.3739
H      3.6796     -4.5155     10.7008
H      4.2506      0.0961      6.3067
C      1.2335      5.7763      4.8134
H      2.4175     -0.3014      1.8620
H     16.7455     -1.5136     15.8467
H     12.5963      6.4661      8.5707
C      8.2291      6.1382      9.1584
C      4.2666      0.9785      8.2453
O      6.2661     17.0966      4.6518
C      6.2427      7.6652      2.7508
C     10.0519     10.3166      5.4451
C     12.8910      6.2510      2.9016
C     -1.5077      6.4115      3.5717
H     17.1380     -4.1765     20.7187
H      4.2089      7.5993     -0.1584
H     -1.5461      2.8041      4.4948
C      2.2933      0.5177      9.1477
C      0.7783      5.1719      3.4514
C      4.8401      3.2353      2.6214
H     13.9622      4.4939      7.5110
H      8.0239      7.8711      8.8606
H     10.4074     12.3749      8.1386
H     13.8206     -2.8026     15.5591
H      7.4768     -2.1551      6.2930
C     14.9198      6.7233      8.6964
C     -1.8066      5.4778      5.7448
C      3.0665      0.6740      2.2279
C      1.6576      4.5898      5.4737
C     14.9723      6.4535      7.1187
C     15.2360      4.3081      0.3807
H     11.4029      5.7612      1.3112
H      4.0775      2.0400      1.0927
H     11.4788     11.1743      6.8648
H      5.9121     13.8682      4.3416
C     12.5277      8.9329      4.9596
C      8.7729      7.5067      9.4822
H      3.9143      5.7472      0.7261
H     20.8274     -2.5865     13.8477
C      8.4386     11.6367      7.8796
H      9.8090      6.7719      1.7835
H     10.6389     11.0477      5.0164
H      6.2755     14.8108      9.4434
C     12.5878      7.2025      7.8420
C      0.7319      3.4692      5.4159
O      8.1976      5.1766      4.4292
C     11.3611      7.9641      5.5323
C      6.4079     14.4989      7.1604
C      5.4593     15.3229      6.4820
C      3.5280      0.9884      5.8361
H      5.7928     -5.5662      8.0930
H      5.5188      3.6882      7.8062
H      8.0643     -4.2860      7.4777
H     12.7871      8.5017      6.9263
C     14.8599      5.0663      6.9384
C      3.8315      5.5273      5.0641
C      3.1124      2.7684      9.0580
H     20.3788     -2.8397     15.4945
C      8.6817     -5.4973     11.0030
H      3.7701      5.5403      8.4895
H     11.1716     -6.6527     11.8191
H      7.2675     15.0297      7.7132
C      3.9893      3.1248      4.7126
C     17.7087     -3.4483     18.3163
C      6.3626     12.6472      8.8665
C      7.2506     -3.6986      7.7569
C      5.4846      4.7362      7.9036
C      5.7306     14.0869      8.4919
H     -0.2558      4.5557      8.6755
H      9.5920      9.1774      8.9811
H      0.5254      3.0357      0.1212
H      9.8317     12.3396      6.5685
H     19.2431     -3.1287     12.9754
H      9.1736     -6.2715     11.6144
H     -0.4439      4.2879      6.3975
C     14.3280     -2.5329     13.8616
H      2.2519      4.4942      9.1505
H      9.6221      9.5429      3.1105
