261

C      6.8478      9.0399     13.6335
C      3.9964      1.5239      7.1743
C      2.2053      3.0041      1.4009
C      6.5827      4.7563      2.0984
H     -3.1876      3.5061      2.5242
C      6.8850      3.5248      2.5931
C      3.4094      3.8521      5.5421
C      6.7968     -3.1464     10.4023
C      3.1804      7.3610     19.4985
C      6.0199      1.7503      3.9432
C      5.9713     -3.9135      9.3610
C      1.0962      8.7028     13.7713
N      0.1733      2.7395      6.3278
C     13.4051     -6.8435      0.5966
O     -1.6462      2.4138      1.6748
C      3.5862      3.8274      6.8779
C      2.6764      6.3431     17.4956
C      3.5371     10.6976     16.9188
H      1.0993      0.8857      9.5943
H     -3.6988      3.6236      4.1524
H      3.6682      6.2535     14.5425
C      3.8704      9.2478     16.2603
H      7.5146     -2.6023     10.0523
H      7.4489      3.7391      3.5676
H     -0.5054      7.3178     10.8609
H     -1.0055      4.8108      6.4681
C      3.1233      2.8229      7.6550
H     10.9699     -2.6067     -0.6586
H      6.7759      1.1002      3.9714
O      1.8512     10.7717     14.7041
C      8.1592     -0.3201      8.6571
C     -5.9885      5.9137      9.5798
H      2.7880      6.4298      9.4930
C      5.8621      2.4578      2.6389
H     -6.5693      5.1270      7.2390
H      7.1115     -3.8372     11.0057
H      4.8510     -2.7069      8.6578
C      4.7985     10.8754     17.8306
C      9.9264     -4.5922      5.1443
O     14.9497     -4.1206      4.9793
C     -1.5921      7.9065      7.1462
C     -4.1713      8.0869     12.0012
C      7.5056      7.8297     12.8828
C      6.4644      7.1132     -0.8805
H      4.6715      4.1381      1.5688
H      4.8794     10.3919     14.7037
H      1.7186     -0.9287      2.8281
H     -4.7539      5.8215      7.3979
C     -5.7874      6.3863     10.9617
C      7.5337      5.4832      3.0467
H      8.6220      8.5840     14.3579
C     -1.1957      6.5985      5.3062
H      2.5693      9.0914     20.9964
H      4.2112      0.0462      1.8503
H      2.3221      6.9890     13.1708
C      9.9200     -1.2478      7.2692
C     -7.1487      5.3502      9.2377
C      2.9657      7.7641     17.9771
C      4.6824      5.6861      0.4147
C      4.7652      9.6035     15.3001
H      9.2094     -5.5139      5.3391
H      7.9700      7.5825      3.2427
H      3.3106      1.3486     10.9146
H      6.1076     -0.8863      9.8380
H      5.8597     12.5751     16.8394
C      0.2117      3.8581      8.7295
C      0.6362      8.0796     12.3962
C      1.8228      1.9824      7.8988
C     12.2269     -6.4216      1.4964
H      5.9570      7.6014     -1.4884
H     -2.6210      2.6772      3.9481
C     -3.0045      7.6969     12.7377
O      0.8402     10.7645     12.7720
C      6.1344     -4.0806      8.0507
C      3.4035      8.5967     20.4421
C      3.3126      1.5677      9.7784
C      3.0174      1.4544      4.8057
H     12.5946     -2.7240      0.3355
H      6.2740     -0.3702      7.1105
C      3.7208      3.4311      3.2668
H      9.1737     -3.5208      6.6711
C     10.9467     -4.4115      0.5657
C     -1.8591      7.0576     12.0902
H     11.0966     -2.2666      7.4909
C      5.2327      2.4334      5.1602
H      4.5257      0.1369      5.6014
H      8.5040      0.5692      7.9840
C      2.6628     -0.2982      8.6935
C      4.8511     -1.6871      7.9257
C     -2.3404      5.4883      3.4050
C      3.7126      9.7017     19.4116
C      2.2712      3.6382      2.8330
C      4.9541     -4.9105      9.8599
H      3.1969      8.3715     14.0399
H     -4.0833      5.2281      2.0572
H     14.6778     -8.9205     -0.4554
O      5.5676      6.6544      6.5295
C     13.4235     -4.7343      4.5904
H      3.6953     10.5429     19.8684
C     10.1559     -4.2963      3.6999
C     11.0340     -5.0739      3.0432
H      5.6935     -4.9688      7.7573
C     -2.6299      7.3194      7.7363
H      2.0752      1.5294      4.9823
H      0.9529      8.5857     10.3402
H      5.9751      1.7211      1.7565
H      1.0722      4.2636      9.1346
C      2.8497      1.7245      1.0449
C     12.9238     -4.2411      2.0266
C     -0.9599      3.3034      1.3159
C     -0.1181      4.1487      4.0671
C      7.3663     -2.0691      7.1879
H      2.0452     -0.6309      4.4659
H     -3.6234      7.4841      7.2684
H      2.5424      9.6747     19.0950
H     13.3883     -7.1176     -0.4816
O     12.8528     -3.3008      6.1223
C      6.1455     -1.2697      7.5677
C      0.6305      7.2312      6.9597
C      2.3018      7.8271     14.1687
C     13.5645     -5.0960      3.0864
H      8.7634     -0.2418      9.6741
C      3.0203      0.5911      3.4277
C      0.5398      2.6120      7.9317
C     10.5978     -2.3487      6.5823
C     -2.7468      3.4567      4.6630
C      5.5897     11.9378     17.7989
C      3.2186      4.0319      9.9575
C      0.7114      2.6307      1.1166
C     11.7494     -4.9986      1.6474
C      4.1720     -0.4635      8.7027
N      1.9929     -0.2472      3.5550
H      3.8064      2.1536     -0.7132
C      2.9480      1.4922     -0.4435
O      3.9571      6.4586     15.5905
C      9.3642      6.7986      0.8472
H      5.7894      9.2266     19.0383
H     -0.2353      1.7583      7.8793
C     -3.1232      4.8328      2.5234
C     -2.5859      7.3280      9.2039
H      1.7419      1.3271      7.0215
H      7.5076      4.6157     -0.0343
H      7.7679     -4.1871      6.6169
C     11.4539     -3.0992      0.0724
H      4.0797     -5.3506      9.2532
H      1.8328      8.0066      8.4712
H     11.3741     -3.6944      4.6281
H      1.8330      9.4629     11.9668
H      2.3454      1.8734     -1.2114
H     -0.5463      3.3123      9.1714
C      2.0128      7.4426     15.5228
H     -7.8339      5.2494     10.1406
C      1.5571      8.4787     11.4435
H      3.4335      4.0718     11.0873
H      2.5726     10.6919     17.6741
C      4.4893      8.4755      4.4523
C      7.4589      7.0293      2.5621
C      8.0717      9.7042     14.2816
C      5.8214      8.6391     15.0062
C      4.0809      6.0912      6.5538
C      1.7425      5.0724      2.6714
C      5.9188      5.9959      0.0407
C      5.6064      7.5077      4.2132
C      7.9431      7.0626      1.0942
C      4.1195      4.9912      7.5380
C     14.2485     -7.9169      1.1734
H     -2.7495      5.2840      6.3812
C      6.2159      7.0737      5.5158
H      9.8065      5.7189      0.6344
H      0.7478      1.9744      2.2930
C      6.9503      5.3660      0.8172
H     -0.1916      3.2846      3.3103
H     -1.6915      6.5836      9.3512
O      7.5374      6.7725      5.8464
H     -4.3857      9.1033     11.6850
H      1.7836      3.2601      3.6533
H     12.9193     -3.1931      2.3592
H      4.3870      5.4162      4.2174
C     -0.4795      7.3754     11.9475
C      2.6467      6.2133     16.0711
H      0.8487      6.6673      9.3511
C     -1.8085      4.4499      4.3740
C      0.3012      7.0365      5.5040
H      4.6877     -4.4800     10.6544
H      2.8939     -0.2536      6.0806
C      1.1782      5.9613      5.0367
H      2.6407     -0.3044      1.6308
H      3.9067     11.4298     16.0906
C     -4.9064      6.1062      8.6886
C      4.5075      0.8285      8.2846
C      6.1867      7.4795      2.8809
C      9.6555     -3.2472      5.8291
C     12.6474     -6.5490      3.0811
C     -1.5649      6.6643      3.8722
H      4.1586      8.3872     21.1622
H      4.0604      6.5779     -0.2333
H     -2.7237      3.3229      5.7048
C      2.0685      1.0200      9.0198
C      0.6649      5.3180      3.6513
C      4.7800      3.3335      2.5586
H      1.7188      4.6279      8.2286
H     -5.1508      8.0411     10.1893
H     10.3726     -0.2936      7.8369
H      7.6378     -2.0052      6.0290
C      1.9669      6.9150      8.9291
C     -1.7304      5.2661      5.7830
C      3.3387      0.4766      2.0130
C      1.2269      4.8742      5.9120
C      1.9487      6.6764      7.3267
C     15.1789     -8.7154      0.3598
H     11.4875     -7.1564      0.9531
H      3.8584      2.0396      1.6409
H      3.4017      0.4433     -0.6483
H     11.2534     -1.5952      5.9092
H      5.1269      1.1384      4.1537
C     12.2525     -3.8890      5.1192
C     -3.9050      6.7734      9.5262
H      4.7803      5.3955      1.4898
H      8.7067     10.3116     13.6495
C      8.5253     -1.1694      7.6018
H      9.5829      7.1399      1.8239
H      8.9271     -2.7995      5.0453
H      6.4626      1.5346      9.9575
C     -0.2138      7.6533      7.7524
C      0.3436      3.7609      5.6322
O      8.0454      5.4003      4.3996
C     11.2976     -5.1235      5.8521
C      6.4555      1.8074      7.5042
C      5.3630      2.3273      6.7053
C      3.5348      0.4874      6.0000
H      7.5851      7.1959      6.6251
H      7.0379      2.6376      7.7333
H     -6.8587      3.4678      7.4767
H      7.9556     -3.1642      8.3518
H     12.3238     -3.2138      6.8259
H      6.5599     11.6973     18.1021
H      1.8107     -1.1579      8.4030
C      1.8315      5.2089      7.1380
H     -1.1536      4.4624      1.3568
C      3.6850      5.4654      5.2010
C      3.4132      2.9298      9.1775
H      8.0600     10.1521     15.2723
C     -4.6333      7.2289     10.6469
H      4.0534      5.1652      8.6331
H     -2.1329      7.0368     10.9474
H      6.9707      0.9583      7.2702
C      3.7954      2.8667      4.6513
C      4.8533      9.4722     18.5273
C      6.6163     -0.3121      8.8226
C      7.3597     -3.5282      7.4225
C     -7.1506      4.5617      7.9750
C      6.1202      1.1184      8.8790
H     -0.3606      4.3713      7.9875
H     -2.3496      8.4305      9.6062
H      0.6733      1.9779      0.0951
H      5.8981      9.7299     13.1180
H     -5.0823      5.5788     11.7889
H     -0.2685      2.0590      5.5443
C      1.2007     10.2105     13.8328
H      2.7891      5.0839      9.4530
H      9.9907     -3.1120      3.3324
