265

C      7.1578      9.1230     13.8002
N     -1.8691     10.7777      1.3804
C      4.1328      1.7107      7.1976
C      1.7894      2.7648      2.0152
C      7.4801      4.8398      1.9861
H     -4.0315      5.8656      2.3087
C      7.3924      3.4461      2.3085
C      3.5682      3.8910      5.6002
C      3.1618      7.2422     19.4781
C      5.8421      1.6261      3.6937
C      5.3318     -4.3114     10.0472
C      0.7880      8.6810     13.8610
N     -0.4563      2.9380      6.2652
C      0.1846      5.9444      0.6204
O     -1.5627      2.6690      1.4903
C      3.1539      4.0657      7.1056
C      2.7537      6.0425     17.4196
C      3.7505     10.2433     16.2093
H      1.1076      0.0603      9.0841
H     -3.5904      4.0865      4.8228
H      4.3466      6.8883     15.5364
C      4.2925      8.9570     15.9775
H      4.1330     -5.9803     11.0406
H      5.5915     -3.9198     10.8770
H      8.3818      2.8633      2.3993
H      0.1506      6.9654     11.1176
H     -1.1576      4.7899      6.7822
H     -4.2147      2.7186     10.2723
C      2.5516      2.8419      7.6847
H      6.7838      1.6471      4.1333
O      1.0878     11.0904     14.7372
C      8.0427     -0.4932      8.7443
C     -6.1337      6.1199      9.7733
H      2.3656      0.3035      6.9588
H      2.9572      6.7381      8.9243
C      6.0353      2.9291      2.8128
H      6.1417      5.1941      7.4057
H      4.8118     -2.3398      9.2866
H      4.5281     -5.9368      9.1219
C      4.6116     10.7305     17.4767
C     -2.9641      8.2780      5.0256
O      2.1366      8.5641      4.5731
C     -1.4948      8.1268      7.0707
C     -4.0038      8.3605     11.9328
C      7.4428      8.1390     12.7654
C      6.3581      7.2302     -0.7785
H      5.4036      4.8988      2.2054
H      4.7645      9.7906     13.9757
H      1.5531     -1.5786      3.5574
H     -5.0609      6.8428      7.9606
H      1.8494     11.6310     14.8099
C     -5.0367      3.2392      9.5280
C     -5.6645      6.5815     11.0871
C      7.6380      5.7601      3.1824
H      8.3988      7.5285      2.1728
C     -0.9553      6.7201      5.2760
H      1.5564      0.1402      1.7250
H      2.1938      6.8818     13.2863
C      9.5864     -1.5600      7.0544
C     -6.9426      4.9949      9.5127
O     -7.2414      2.9010     10.2998
C      3.0490      7.5265     17.9572
C      4.6755      5.6889      0.0052
C      5.0360      9.1437     14.8593
H     -3.5559      7.0246      4.9739
H      8.3162      7.7706      3.6802
H      3.3328      1.0404     10.4996
H      6.2958     -0.4435      9.7843
H      4.4960     12.8820     16.7770
C     -0.0722      3.3396      8.7091
C      0.1026      8.5826     12.4805
C      1.5018      1.9912      7.4293
H     -1.9690      6.8295      9.4656
C     -0.8723      6.4310      1.5655
H      5.5546      7.5415     -1.3797
H     -2.5474      2.8094      3.9226
C     -2.8444      7.5225     12.6614
O      2.4366     10.3022     13.2051
C      6.2785     -4.3473      9.0757
C      3.8428      8.3448     20.3619
C      2.9677      1.3415      9.3988
C      2.8492      1.1796      4.8152
H     -1.4763     11.6774      1.0788
H     -1.8473     10.5736     -0.5973
H      5.9803     -0.9829      6.8015
H      3.8498      3.3463     11.2209
C      3.6491      3.3661      3.2379
H     -4.5199      9.2823      6.1551
C     -2.2020      8.5571      0.6702
C     -1.8098      7.2985     11.7363
H     10.3848     -3.1815      7.3648
C      5.2906      2.1108      4.8592
H      8.4501      0.7012      8.6565
C      2.6408     -0.6438      8.2944
C      4.7855     -1.7591      8.2833
C     -2.3615      5.5753      3.6649
C      3.8933      9.2238     19.3155
C      2.2113      3.6521      2.9867
C      4.4387     -5.4667     10.1228
H      3.0350      7.9738     13.9170
H     -3.6954      4.5708      3.6253
H      2.6268      5.3660     -0.4428
O      5.6444      6.5092      6.4954
C      0.6961      8.0231      4.5644
H      4.2199     -2.4068      7.6947
C     -2.8566      8.5090      3.5466
C     -2.0015      7.6892      3.0717
H      6.6748     -5.4302      8.7933
C     -2.8028      8.0060      7.7119
H      2.5437      3.7859      5.1805
H      0.9690      8.5336     10.4871
H     -1.0799      3.6311      9.1559
C      2.8145      1.7466      1.6393
C     -0.1397      8.6353      2.1623
O     -5.8703      4.4091     11.6904
C     -0.5872      3.4659      1.7181
C     -0.2693      4.1509      4.0872
C      7.2391     -2.4421      7.5496
H     -3.3617      7.1495      7.1598
H      2.7645      9.3224     19.2344
H      0.2401      6.4603     -0.3244
O      0.0423      9.7176      6.0442
C      6.0992     -1.4643      7.7121
C      0.7282      7.4030      6.7284
C      1.9277      7.7663     13.9542
H      2.5707      8.1457     15.9115
C      0.5972      7.5821      3.0631
H      8.4309     -1.1176      9.4398
C      2.3767      0.2559      3.6783
C      0.0659      2.3051      7.5675
C     10.5535     -2.3842      6.7323
C     -2.6186      3.5684      4.8615
C      4.5176     12.1323     17.7053
C      3.3993      3.5709     10.0510
C      0.6251      2.7476      1.4139
C     -1.4399      7.8297      1.6873
C      3.9317     -0.6035      8.3363
N      2.2867     -0.9933      4.0689
C      3.5955      1.3987      0.3800
O      3.8196      6.1741     15.2256
C      9.3791      6.3834      0.1805
H      5.8753      9.3226     18.5711
H     -0.6637      1.4755      7.9931
C     -3.2019      4.9574      2.6828
C     -2.6403      7.7697      9.0394
H     -5.0545      3.9687      8.8246
H      1.6874      1.9936      6.4490
H      7.6333      5.7050     -0.2111
H      8.0373     -3.1571      9.6100
C     -1.9441      9.9093      0.3157
H      1.3525      7.7455      9.0769
H     -1.2645      9.5901      4.2955
H      1.9444      9.5843     12.0314
H      3.2636      0.8801     -0.5008
H      0.4493      4.4067      8.4655
C      1.9848      7.5009     15.5421
H      3.5547      2.1739     -0.2833
H     -2.6147     10.8892      2.0115
C      1.0659      9.0028     11.6485
H      2.9243      9.8098     16.5825
C      4.2987      7.8933      4.2242
C      7.7543      7.2031      2.9689
C      8.2326      9.7626     14.4460
C      6.2475      8.6584     14.9954
C      4.3363      5.9704      6.4442
C      1.6913      5.1421      2.4763
C      5.9888      6.3365      0.2103
C      5.7025      7.5636      4.2719
C      8.1582      6.8634      0.6775
C      4.1692      5.0817      7.6678
C      1.2252      5.2119      1.0641
H     -2.2536      5.7992      6.6704
C      6.3499      6.6646      5.2520
H     10.1793      5.5311      0.2529
H      0.3817      1.6728      0.7627
C      7.1112      5.7334      0.8511
H     -0.6934      3.3257      3.3368
O      7.7037      7.1698      5.4825
H     -3.6035      9.4041     11.7142
H      8.0166     10.9698     14.5319
H      1.5985      3.4021      3.8529
H     -0.3000      9.6371      2.6323
H      2.8297      3.7296     -0.3669
H      4.3782      5.4708      4.3105
C     -0.5343      7.5534     11.7865
H      6.7192      5.3418      5.3631
C      2.7128      6.1200     15.8787
H      1.1594      6.1440      9.2314
C     -1.6690      4.6568      4.7312
C      0.4287      6.8945      5.4381
H      4.8991      7.7920     20.3356
C      1.3425      5.7436      4.8759
H      1.9500     -1.5509      8.3008
H      3.8003     10.9976     15.4674
H      0.0647      7.5254      8.7257
C     -4.6558      6.3557      9.1242
C      4.2990      0.8208      8.3480
C      6.5971      8.0116      3.3184
C     -3.7583      9.4005      5.5835
C     -0.2040      6.3578      3.0055
C     -1.4370      6.6817      3.8890
H     -2.7814      2.9453      5.5521
C      1.9076      0.5164      8.6408
C      0.5464      5.2421      3.4247
C      4.9876      3.9596      2.7494
H      1.5911      4.7105      7.8256
H      8.4995     -4.1031      8.5019
C     -6.1057      3.7351     10.4029
H      9.7886     -0.6064      7.5218
H      7.0177     -3.2754      6.7382
C      1.9606      6.8960      8.6577
C     -1.6475      5.4945      5.9471
C      2.1789      0.5581      2.2868
C      1.2742      4.6672      5.7189
C      1.9697      6.6785      7.2194
C      2.2503      4.5033      0.0490
H     -1.8548      5.9602      1.0239
H      3.3184      2.1017      2.6037
H     -4.1755      5.3047      8.6085
H     -5.4979      2.2195      9.0601
H     11.5369     -2.1218      6.2795
H      5.4513      0.8906      2.9252
C     -0.4937      8.9894      5.0386
C     -3.8843      7.3590      9.7761
H      4.7007      4.7283     -0.2890
H      8.8143      9.6641     15.3218
C      8.4252     -1.4225      7.6549
H     -2.6951      3.9503      2.3024
H     -4.2053     10.3576      5.0775
C     -0.3729      7.6835      7.8063
C      0.3758      3.5992      5.3580
O      7.8228      5.2841      4.3006
C     -1.5726      8.0770      5.5710
C      6.4977      1.7271      7.0787
C      5.2157      1.7756      6.2514
C      3.1469      0.6300      6.2928
H      7.9243      7.2351      6.4100
H      6.8247      2.5909      6.9062
H      5.4988      3.5379      8.1251
H      0.7131     10.4621      5.8117
H      5.4355     12.4145     18.1494
H      1.1905      8.3464      6.6463
C      1.9837      4.9917      6.9354
H     -0.8524      4.7903      1.6232
C      4.0422      5.3150      5.1415
C      2.7287      2.7784      9.1166
H      9.0803      9.4266     13.9395
C     -4.4333      7.5561     10.9740
H      3.6710      5.8942      8.5625
H     -1.9793      6.3969     11.0143
H      7.0403      0.9382      6.6625
C      3.8731      2.5978      4.6606
C      4.7618      9.4773     18.3452
C      6.3969     -0.2451      8.7263
C      7.5726     -3.5528      8.6528
C      5.5757      4.5198      7.9818
C      6.0015      1.1323      8.2820
H      0.4225      3.2685      9.5659
H      1.5812      4.3878     -0.6388
H      6.4038      9.7428     13.3027
H     -4.9424      4.8921     11.8505
H     -1.1681      2.3844      5.7103
C      1.3918      9.9984     13.8565
H      2.9654      4.7438     10.2896
H     -3.3445      9.6204      3.4128
