266

C      7.1175      9.0979      1.0611
N     -2.1843     10.9087      1.5725
C      3.8306      1.4036      7.0518
C      1.9531      3.0083      1.2801
C      6.9524      5.0974      2.2595
H      8.8714     -7.7493      2.6026
C      7.2189      3.8759      2.6848
C      3.4204      3.7012      5.5016
C      3.4278      7.2837      6.6202
C      6.0402      1.7314      3.7111
C      5.6178     -4.1878      9.5585
C      1.1064      8.6900      0.6736
N     12.3408    -10.2218      6.3636
C      0.1985      5.3683      0.5794
O     -1.7638      2.5356      1.5860
C      3.5110      4.0891      6.9847
C      2.8820      6.1959      4.5012
C      3.8532     10.3848      3.7986
H      1.0672      0.8392      9.4615
H      9.0690     -9.0273      4.4705
H      3.9864      6.8714      1.6550
C      4.0869      9.0573      3.2631
H      4.2082     -5.3505     10.8449
H      5.7490     -3.0440      9.7143
H      7.2471      3.6314      3.8267
H      0.1420      6.6499     -1.8223
H     11.5277     -7.8181      6.6983
H      8.0681    -10.2528     10.1382
C      2.9998      2.8897      7.5760
H      6.9371      1.0050      3.8913
O      1.2342     10.9249      1.8993
C      7.9647     -0.3168      8.7265
H      4.6445     -9.4585     10.4145
C      6.9489     -6.7345      9.8764
H      2.6400     -0.4776      5.6697
H     15.6133     -5.4701      9.3289
C      6.0710      2.8852      2.5830
H      6.4413     -8.3592      7.4546
H      4.8692     -1.9210      9.6775
H      5.0731     -6.3367      9.5483
C      4.7554     11.1069      4.7935
C     10.0190     -4.4773      4.9050
O     14.9761     -4.2315      4.9033
C     11.2824     -4.8784      7.0263
C      8.7500     -4.6872     12.1352
C      7.5379      7.9943      0.0817
C      6.5086     -5.5952     12.1740
H      4.8546      4.1241      1.3462
H      4.4022      9.6567      1.1441
H      1.7516     -0.3403      2.8624
H      7.9162     -6.4031      7.9436
H      1.3253     10.3044      2.7288
C      7.6462     -9.7513      9.3618
C      7.2293     -6.2080     11.1652
C      7.4877      5.8764      3.2402
H      8.0142      7.6954      2.1747
C     11.9342     -6.1036      5.0760
H      3.2706      8.8379      8.3835
H      1.9984      0.1577      1.5155
H      2.1928      6.4693      0.7728
C      9.6847     -1.3307      6.9463
C      5.9699     -7.7974      9.5887
O      5.5606     -9.9569     10.5226
C      3.0822      7.6764      5.1472
C      4.4527     -6.8361     13.0151
C      4.7641      9.2205      2.0212
H      9.6496     -5.4371      4.7233
H      7.9867      7.7135      4.1653
H      3.8000      0.8920      9.9795
H      6.4415     -0.7861      9.9778
H      5.0678     12.3426      3.3375
C     12.6412     -9.4615      8.7037
C      0.3080      8.4606     -0.5305
C      1.4927      1.9887      7.5831
H     10.6853     -4.5315      9.5703
C     -0.4672      6.2525      1.5703
C     -2.8070      7.6660     -0.3263
O      2.6879     10.6132      0.3065
C      6.6817     -4.3850      8.4668
C      3.7616      8.4062      7.4615
C      3.2162      1.2650      9.3017
C      3.0111      1.3927      4.7483
H     -2.9728     11.4464      1.8256
H     -3.0373      9.9834     -0.0741
H      6.0822     -0.8273      6.8923
H      2.7000      3.3412     10.8651
C      3.7592      3.1643      3.2075
H      8.3462     -4.3343      6.0102
C     -2.0860      8.3391      0.5571
C     -1.9440      7.2139     -1.2967
H      9.9587     -3.4414      7.3558
C      5.3867      2.2529      4.9240
H      4.3856      0.3699      5.8689
H      8.4387      0.5423      8.5117
C      2.4696     -0.5167      8.1963
C      4.5139     -1.8044      8.4569
C     10.8155     -7.7323      3.6343
C      4.0287      9.5095      6.4589
C      2.5855      3.4861      2.6366
C      4.9542     -5.2301     10.0082
H      3.4423      8.1238      1.0440
H      2.0355      5.2409     -1.1221
O      5.6490      6.8720      6.4002
C     13.7516     -4.7465      4.4536
H      3.7570     -2.4995      7.7945
C     10.2950     -4.2554      3.4753
C     10.8324     -5.3444      2.8177
H      6.4729     -4.3874      7.2430
C     10.0694     -5.1779      7.5954
H      2.2888      3.4997      5.5148
H      1.1941      9.0779     -2.5109
H     12.8222    -10.0536      9.5658
C      3.0319      2.0035      0.9004
C     13.1578     -4.4352      1.9559
O      7.4371     -9.0346     11.6145
C     -0.4973      2.9152      1.7789
C     12.8088     -8.9801      4.1376
C      7.2317     -2.2233      7.6235
H      9.2126     -5.3761      6.9845
H      3.2450      9.7262      5.8468
O     12.9259     -3.2555      6.0628
C      5.8690     -1.5296      7.8370
C     13.6512     -5.9032      6.6694
C      2.2512      7.6222      1.1061
H      2.7090      8.5274      2.7195
C     13.7398     -5.2515      3.0448
H      8.5796     -0.3752      9.5941
C      2.9885      0.5540      3.4140
C     12.9874    -10.4865      7.6484
C     10.2726     -2.6786      6.7148
C      9.9658     -9.3913      5.1886
C      5.3848     12.1722      4.3611
C      3.1989      3.7655     10.0721
C      0.7344      2.5924      1.2023
C     -1.1974      7.7742      1.7063
C      3.8100     -0.5579      8.3045
N      2.1408     -0.3226      3.6852
C      3.4143      1.6522     -0.5706
O      4.1210      6.1210      2.3373
C      9.3925     -6.4224     13.6654
H      5.9304      9.4420      5.5374
H     12.4970    -11.1889      7.9787
C      9.8271     -8.2500      2.7566
C     10.0371     -5.1573      9.0134
H      8.3859     -9.1273      8.9048
H      1.7872      1.5559      6.4703
H      7.4259     -7.9869     13.2752
H      8.7005     -3.8492      7.8961
C     -2.3495      9.6427      0.7320
H      4.7543     -7.6923      9.8543
H     14.4540     -6.2107      9.6381
H     12.2104     -3.2491      4.3463
H      1.2512     10.0627     -1.4504
H      2.5987      1.8127     -1.1744
H     11.6026    -10.0062      8.4091
C      2.1558      7.5463      2.5520
H      4.2844      2.3270     -1.3019
H     -1.4938     10.8585      2.1957
C      0.8701      9.1124     -1.5496
H      2.9270     10.5621      4.1144
C      4.3015      8.0008      4.1825
C      7.6814      7.2754      3.1638
C      8.3944      9.5079      1.7703
C      6.0529      8.7363      1.9022
C      4.5545      6.0003      6.4088
C      1.8902      4.9875      2.5039
C      5.7513     -6.5237     13.0015
C      5.5578      7.4740      4.2492
C      8.0387     -6.1097     13.7759
C      4.4302     -7.7870      7.5505
C      1.5171      5.0577      0.8411
H     10.1454     -6.8814      6.0081
C      6.2798      7.0150      5.2551
H      9.5998     -7.5918     13.3379
H      0.7735      1.5578      0.3620
C      6.9911     -7.2361     13.8132
H     12.4708     -9.6946      3.4800
O      7.5183      7.3516      5.8451
H      8.8346     -3.7372     11.4698
H      8.6788     10.3302      1.3482
H      1.6342      3.1982      3.3653
H     12.8897     -3.3220      2.5133
H      3.5948      4.2900     -0.2170
H      4.7019      5.4299      3.9900
C     -0.5416      7.4329     -1.2375
C      2.7292      6.1859      2.9639
H     15.6197     -7.1576      9.3091
C     10.8775     -8.4515      4.8053
C     13.4496     -6.0658      5.2326
H      4.8702      7.9222      7.6284
H      1.9990      1.7173      4.6545
C     14.3406     -7.2890      4.7474
H      1.7977     -1.5218      8.6328
H      1.9123      1.6219      2.3858
H      3.8610     11.1002      3.1075
C      8.1038     -6.7033      9.0514
C      4.3525      0.7656      8.3883
C      6.4183      7.8455      2.9817
C      9.2967     -3.5536      5.7778
C     13.0314     -6.6083      2.9340
C     11.5421     -6.6099      3.6447
H      3.6600     -7.2836     12.2532
H      9.7225     -9.5606      6.3481
C      1.8536      0.9798      8.7052
C     13.7365     -7.7742      3.5061
C      4.8987      3.6824      2.6222
H     14.3007     -8.3310      7.9295
H      7.2557     -5.4370      8.5492
C      6.6057     -9.0550     10.2496
H     10.5649     -0.7640      7.3872
H      7.3809     -2.3343      6.5226
C     15.1489     -6.2470      8.8823
C     11.1591     -7.3518      5.8639
C      2.6493      0.8706      1.8647
C     14.3264     -8.2977      5.9836
C     14.9860     -6.2668      7.4248
C      2.3160      4.5059     -0.2437
H     -1.3773      5.5417      1.7309
H      3.9853      2.5652      1.2557
H      3.6926      0.7640     -0.3058
H      8.6778     -7.6254      8.8910
H      6.9374    -10.2358      8.6255
H     11.3402     -2.7443      6.4747
H      5.4852      0.9520      3.0527
C     12.4333     -4.0284      4.9687
C      8.9708     -5.6865      9.6722
H      4.5123     -7.8624     13.6492
H      8.2511      9.8918      2.9544
C      8.5400     -1.4035      7.7176
H     10.4383     -8.5941      1.8974
H      9.0040     -2.6362      4.9620
H      5.9355      1.4186      9.6887
C     12.4799     -5.6720      7.4840
C     13.4287     -9.5301      5.6026
O      7.3733      5.6498      4.5420
C     11.2260     -4.8587      5.5167
C      6.5444      1.4208      7.3265
C      5.1543      1.6109      6.3524
C      3.3470      0.4918      5.9216
H      5.6606     -9.3341      8.2144
H      7.9542     -2.9405      9.4304
H     12.6470     -3.6876      7.0678
H      6.1729     12.4606      5.0251
C     14.9592     -7.7214      7.2004
H     -0.7758      3.9519      2.1423
C      3.8975      5.1682      4.9686
C      3.2781      2.8784      9.0004
H      8.6627      8.6921      1.1499
C      8.4866     -5.7059     10.9982
H      3.9727     -7.2915      8.4134
H     -2.3134      6.5144     -1.7525
H      7.0237      0.4410      6.5264
C      3.9808      2.5841      4.5928
C      5.0821     10.1466      5.7877
C      6.6054     -0.4621      9.0745
C      7.6217     -3.3372      8.5342
C      5.6742     -8.1894      8.1801
C      5.9555      0.9108      8.6926
H     12.8404     -8.4813      8.6357
H      1.7754      3.6598     -0.7542
H      6.9571     10.0359      0.3934
H      8.4066     -8.7180     11.6328
H     11.6536     -9.7850      7.1899
C      1.7746     10.0292      0.7638
H      2.4593      4.6686     10.0409
H      9.9640     -3.3097      3.0962
