267

C     19.6416     -4.1907     13.6628
N     -2.5382     10.7316      1.7625
C      4.0404      1.6895     19.9708
C      2.4201      2.8211     14.9899
C     -5.3243      4.9148      2.1482
H      9.8184     -5.5535     15.2586
C     -5.1198      3.4661      2.5849
C      3.6032      3.9261     18.1695
C     16.1197     -5.6914     19.3222
C     -6.5193      1.8399      3.9577
C     -7.7665      8.5022      9.0869
C      0.7360      8.7095     13.9055
N      0.7395      2.4143     18.5903
C      0.9724      6.4342      0.4477
O     -1.2096      2.7131     14.6285
C      3.2616      4.1012     19.7447
H      0.9540      7.8093     11.4064
C      2.7802      6.1635     17.3420
C     16.1281     -2.4675     16.3622
H      1.3437      0.7081     22.8547
H     10.7058    -10.3365     17.8686
H      4.4241      7.1953     14.7434
C     16.9826     -3.7005     16.0671
H     -8.5053      7.0694     10.5013
H     -8.8029      8.8770      9.2052
H     12.1971     -7.2971     19.8486
C      3.1657      2.8875     20.6230
H     -5.5691      1.5783      4.7874
O      1.0930     10.4759     15.4721
C      7.8431     -0.1481     21.4203
C     -6.8499      5.9672      9.9083
H      3.4124     -0.1430     19.6334
H     -9.1851      5.4971      8.3136
C     -6.3688      2.9918      2.9546
H     -6.4541      4.1215      7.3749
H     15.6776     -5.7046     21.7203
C     16.7665     -2.0442     17.6248
C      9.8669     -4.6013     18.1521
O      2.0513      8.7542      4.5789
C     -1.5341      7.9376      7.1524
C     -4.0934      8.0512     11.7905
C     20.6800     -5.1108     12.7805
C     -6.1612      6.8893     -0.8132
H     -7.1033      4.4620      1.8321
H     17.2560     -3.1479     14.1196
H      2.0278     -1.3275     18.7494
H     -5.7017      6.6879      8.9076
C     -5.0095      2.7937      8.8624
H      0.9413      1.6696     15.3117
C     -5.7525      6.4787     10.8902
C     -5.1454      5.8167      3.3439
H     -4.7443      7.6568      2.3077
C     11.7883     -6.1222     17.9749
H     15.9359     -4.2074     21.0102
H     16.4101     -2.1195     15.3145
H      2.6940      5.8585     -0.0053
C      9.7762     -1.6318     20.7560
C     -6.6311      4.7757      9.2357
C     15.9716     -5.3207     17.8392
C     -7.9468      5.3093     -0.3823
C     17.7960     -3.8494     15.0199
H      9.3422     -5.7390     18.0356
H     -4.8704      7.8968      3.8267
H     -9.5129      0.9664     10.6748
H     18.3726     -1.0548     16.6757
C     -0.1572      3.4013     21.1598
H     19.5710     -2.6267     15.1783
C     -0.1732      8.8321     12.6813
C      1.8871      1.6166     20.6702
H     -1.5148      6.1208     10.6152
C     -0.5128      6.4238      1.2080
H     -7.4132      7.4856     -0.7834
H     18.9825     -3.8303     12.6863
C     -2.6615      7.6322     12.2641
O      2.3532     10.6478     13.5119
C     -6.4680      8.7107      8.7879
C     16.5864     -4.3875     20.1364
C     -9.4988      1.5184      9.5865
C      2.6649      1.1295     17.8911
H     -1.7204     10.7450      2.6406
H      5.2591     -0.8575     19.9978
H    -10.7645      4.3843      9.6894
C     -8.5790      3.5596      3.1093
C     -1.9270      8.5285      0.2934
C     -1.1834      6.6739     11.7042
H     10.8385     -1.9330     18.6504
C     -7.6651      2.1052      4.9590
H     17.1655      0.0099     17.5725
C      2.3743     -0.3626     21.7134
C      4.3328     -1.7900     21.7221
C     10.9569     -7.9110     16.7437
C     16.4390     -3.2210     19.4851
C      2.9700      3.9777     15.5986
C     -7.8528      6.8525      9.5525
H      2.5474     -1.0229     22.8519
H      2.8510      7.7176     13.3024
H     -3.5782      4.9544      4.5755
H      0.5596      3.7316      0.0291
O     -7.2768      6.6794      6.7631
C      0.7923      8.0223      4.4787
H      3.8510     -2.5373     20.8493
C     10.1368     -4.1629     16.5556
C     10.6655     -5.4596     15.7350
H     -5.7018      8.4264      9.5071
C     -2.4430      8.4814      7.9898
H      2.5646      4.1347     17.8159
H     -0.3708      9.8561     10.8830
H     -8.7222      3.9971      0.9315
H      0.6586      4.1543     21.1609
C      3.2431      1.6272     15.3040
C     -0.1459      8.5339      2.1491
O     -8.2467      3.9268      0.0873
O     -5.3252      3.7617     10.8161
C     -0.2342      3.1101     13.9923
C      0.1240      3.6744     16.5084
C     -6.0048     10.8363      7.3643
H      9.9019     -2.6923     21.5939
H     15.4704     -2.6257     19.0495
H     -0.5689      9.4002      3.9887
H     -0.8223      8.1368     10.7252
O      0.1564      9.7189      6.1084
C      5.8693     -1.4264     20.9773
C     13.4653     -5.8630     19.3471
C      1.6669      7.4690     13.9174
H      2.6337      8.3322     15.5926
C      0.6981      7.6917      3.1282
H      8.5697      0.5640     21.7563
C      2.2693      0.2397     17.0623
C      0.5695      2.3514     20.0585
C     10.3968     -2.5397     19.4663
C     10.6012     -9.4745     18.6816
C     17.5898     -0.8324     17.6776
C     -9.8805      3.9762     10.0982
C      1.0910      2.4334     14.4586
C     -1.3748      7.7003      1.5496
C      3.8164     -0.5657     21.5253
N      1.6995     -1.0243     17.5730
C      3.8029      1.4191     13.5574
O      4.1911      6.2668     15.0110
C     -3.2589      6.5643      0.3459
H     18.4621     -3.5671     18.5812
H     -0.1625      1.4184     20.0955
C     10.2625     -8.4411     15.6853
C     -2.6724      7.9160      9.1834
H     -5.1463      2.7094      7.8146
H      1.8840      1.0089     19.8770
H     -4.4845      3.3266     11.2941
H     -4.5270      9.4456      7.7076
C     -2.8386      9.7126      0.7676
H     -8.0680      6.4984      8.5545
H     14.4741     -5.4454     21.8883
H      9.4676     -9.2413     18.5536
H     -0.6409      9.6379      2.4595
H      1.0967     10.0019     11.6713
H      4.9808      1.4573     13.4656
H     -0.9720      3.0306     21.8005
C      1.9784      7.4498     15.3337
H      3.6364      0.3104     13.5133
C      0.1541      9.9072     11.8753
H      1.0926     -1.5657     16.9755
C     17.3093     -4.9873     17.2940
C     -5.2637      7.2063      3.1885
C     20.2570     -3.0077     14.3690
C     18.8634     -4.7814     14.7604
C     -8.3993      5.9820      6.3387
C      2.1030      5.2069     15.1688
C     -6.5410      5.6251      0.0926
C     -7.3526      7.3250      4.0648
C     -4.4661      6.9380      0.7906
C     -8.8132      5.0893      7.3429
C      1.9766      5.1945      0.6566
H     10.4042     -6.2884     19.4164
C     -6.4211      6.9642      5.3416
H      0.4773      1.4848     17.9888
H     10.0225     -7.5767     14.9911
H      1.2178      1.5893     13.8175
C     -5.6680      5.6252      1.0556
H     -1.0337      4.1892     16.1714
O     -5.3288      7.3739      5.5058
H     -4.2042      9.0601     11.2868
H     21.0165     -3.7021     14.7824
H      0.6623      2.7194     16.3781
H     -3.3555     10.6943      2.3525
H      1.5883      4.1805     -1.4066
H     -4.0255      2.7449      8.9925
H      4.5147      5.5926     16.9711
C     -0.0455      7.6773     11.6561
C      2.8247      6.2771     15.8236
H     14.8740     -7.2338     21.7192
C     11.0719     -8.2640     18.1646
C     13.3115     -6.1888     18.0494
H     17.5242     -4.8776     20.2684
H      3.1915      2.2800     17.7066
C      1.3303      5.6570     17.5944
H      1.6604     -0.8433     21.1299
H      2.2152     -0.5962     14.9180
H      2.0009     11.1277     15.4978
H      0.2621      7.7028      8.2812
C     -4.9056      7.0548      8.3665
C     -8.5229      0.8907      8.4370
C     -6.5596      7.4379      2.9020
C      9.4418     -3.4829     18.8679
C     -0.1130      6.2406      2.7140
C     11.4995     -6.5609     16.5728
H      2.2503      3.2441     -0.1556
H     -7.9462      5.3895     -1.6383
H     11.2438     -9.7520     19.7474
C      2.1165      1.0173     22.0989
H     11.4509     -2.7613     19.9526
C      0.8225      5.0726     16.1464
C     -7.3491      3.8724      2.6645
H     -1.1112      3.6863     20.7582
H     -6.2317      8.8752      6.7618
C     -5.5297      3.9021      9.5400
H     10.1995     -0.7684     21.3516
H     -6.1175     11.0991      6.2210
C     14.8743     -6.2067     21.3639
C     11.3054     -7.0528     19.0587
C      2.1901      0.3473     15.5967
C      1.3927      4.6423     18.3973
C     14.9343     -6.2588     19.9125
C      1.5427      3.9871     -0.3267
H     -0.9180      5.3569      0.8000
H      4.3556      1.7048     15.4779
H     -2.3510      8.2182     10.2276
H      3.4317      1.8028     12.5178
H     -4.9337      7.4993      7.3098
H     -6.7774      0.6739      3.3176
C     -0.2573      8.9791      4.9235
C     -3.8123      6.8838      9.1904
H     -8.4774      5.9753      0.3593
H      9.4316     -3.7399     15.9345
C      8.3188     -1.2904     20.8345
H      9.2980     -9.0009     15.4308
H      8.4830     -3.0389     18.7704
C     -0.1587      7.5791      7.4434
C      0.6971      3.5762     18.0111
O     -4.5661      5.1559      4.3147
C     -1.6183      8.2262      5.7300
C     -6.5376      1.4428      7.1909
C     -7.5379      1.8446      6.4176
C      3.2620      0.7915     19.1558
H     -5.4711      0.9075      6.8192
H      6.7337     -0.3940     22.8248
H      0.6522     10.6902      6.2224
H     18.3509     -0.9151     18.4965
C      1.9261      4.9466     19.7628
H     -0.3153      4.2489     14.0975
C      3.9375      5.3501     17.9348
C     -9.2118      2.8823      9.1095
H     20.3310     -2.2242     13.6882
H      0.6356      6.3803     -0.5531
C     -4.5621      7.1028     10.6136
H     -9.5253      3.8393     11.0880
H     -0.8717      5.8165     12.3480
C     -8.5322      3.0541      4.4809
C     17.4802     -2.9785     18.6721
C      6.4419     -0.2149     21.7462
C     -5.8022      9.3864      7.7329
C     -7.5020      4.4367      8.0327
C     -7.0089      1.1620      8.4217
H     12.3976     -8.4201     18.1300
H     -3.6276     10.2535     -0.0422
H     -2.8511      5.9037      0.8937
C      1.3478     10.1012     14.1420
H     -9.3011      5.0433     10.0907
H     10.8530     -3.4195     16.3171
267

C     19.8549     -4.2542     13.5838
N     -2.5048     10.4176      2.0555
C      4.1021      1.7132     20.1850
C      2.3754      2.7961     15.0131
C     -5.3841      4.9057      2.2509
H      9.8456     -6.4035     15.4222
C     -5.2019      3.5231      2.6231
C      3.4746      3.8960     18.2386
C     16.1322     -5.5358     19.3034
C     -6.4019      1.6655      4.0359
C     -7.7558      8.2861      8.9962
C      0.6938      8.7425     13.8292
N      0.6644      2.2754     18.7681
C      0.8116      6.3973      0.5231
O     -1.3716      2.8621     14.7018
C      3.2169      4.0589     19.7206
H      0.9172      7.4647     11.2477
C      2.8835      6.1962     17.3235
C     16.2919     -2.6486     16.5087
H      1.5102      1.5193     22.9570
H     11.6055    -10.1462     17.8003
H      4.6041      6.9820     15.1016
C     16.9779     -3.8831     16.1635
H     -8.1709      7.1860     10.6060
H     -8.0402      9.2247      8.7714
H     11.7483     -7.6346     19.8599
C      3.0935      2.6770     20.6801
H     -5.4346      2.0169      4.2809
O      1.2373     10.5439     15.5482
C      8.0961     -0.1041     21.4128
C     -6.7204      6.0682      9.8186
H      2.8206     -0.2355     19.0138
H     -9.4676      5.3278      8.0607
C     -6.3817      2.7071      2.9572
H     -7.0501      3.8955      7.1278
H      3.9921     -1.8633     22.6972
H     15.8161     -6.5725     21.6862
C     16.9314     -2.1267     17.5598
C     10.0603     -4.6321     17.9879
O      2.0675      8.5626      4.7264
C     -1.5143      8.1174      7.1464
C     -4.1646      8.0197     11.6713
C     20.6686     -5.1013     12.8122
C     -6.4437      7.0752     -0.8767
H     -7.0139      4.7213      2.1781
H     17.5122     -3.4225     13.7656
H      1.7808     -1.4153     18.7668
H     -5.7420      6.6025      8.3960
C     -4.7684      2.9082      8.8217
H      0.5496      1.8370     15.2139
C     -5.8349      6.5027     10.7762
C     -5.0973      5.6355      3.2379
H     -4.6669      7.1475      1.9132
C     11.7803     -6.0187     18.0212
H     16.0621     -4.4989     21.3028
H     16.0090     -1.7670     15.9976
H      2.9495      5.5226      0.1565
C      9.7498     -1.7099     20.4699
C     -6.8037      4.8654      9.2412
C     15.9639     -5.2713     17.8925
C     -8.1138      5.2465     -0.2654
C     17.8802     -3.6693     14.9508
H      9.4860     -5.8315     18.0708
H     -4.7702      7.8289      3.8812
H     -9.1190      1.4389     10.7216
H     18.7353     -0.6707     16.8317
C     -0.1490      3.3330     21.1069
H     19.4601     -2.5660     14.8060
C     -0.0709      8.7782     12.5843
C      1.6843      1.9379     20.8558
H     -1.3444      6.4938     10.5844
C     -0.4617      6.4304      1.2993
H     -7.5825      7.4063     -1.3967
H     18.6659     -3.9803     12.9469
C     -2.6054      7.5416     12.4413
O      2.1431     10.5113     13.6808
C     -6.4623      8.6821      8.8013
C     16.6665     -4.5884     20.2172
C     -9.5011      1.6757      9.6035
C      2.6410      1.1843     17.8973
H     -1.3444     10.5930      2.0139
H      5.4273     -0.5176     20.2641
H    -10.7529      4.2149     10.4568
C     -8.7452      3.4413      3.1063
C     -1.7724      8.6429      0.3082
C     -1.3364      6.6240     11.7617
H     11.4293     -2.2633     18.8680
C     -7.6203      2.1241      4.7783
H     17.3231     -0.0042     17.3298
C      2.2929     -0.4364     21.5830
C      4.5263     -1.6615     21.8240
C     11.0013     -7.8264     16.6991
C     16.3787     -3.2975     19.4549
C      2.9054      3.8275     15.5633
C     -7.9216      7.0329      9.4883
H      1.8657     -1.3034     22.1121
H      2.9048      8.0844     13.1732
H     -3.4305      5.2788      4.1166
H      0.5517      3.7263     -0.2865
O     -7.1957      6.7675      6.6639
C      0.7546      8.0547      4.3450
H      3.5815     -2.2967     21.2347
C     10.1841     -4.4070     16.5947
C     10.8065     -5.5237     15.6989
H     -5.8690      8.3029      9.6116
C     -2.4668      8.5445      8.1470
H      2.5251      3.7867     17.6918
H     -0.5433     10.0231     10.8629
H     -9.2721      3.9597      0.3586
H      0.2898      4.2300     21.7222
C      3.1371      1.4740     15.1160
C     -0.2059      8.4129      2.0354
O     -8.4932      4.0174     -0.1324
O     -5.3928      3.8161     10.8166
C     -0.3428      3.2819     14.2442
C      0.2287      3.5795     16.6351
C     -5.8156     10.8203      7.5123
H     10.0106     -2.3088     21.4658
H     15.3391     -3.1454     19.6138
H     -0.4892      9.8770      4.3009
H     -0.3558      8.3101     10.4978
O      0.3331      9.6949      6.0615
C      5.8197     -1.3801     21.1841
C     13.5613     -5.9811     19.5718
C      1.7767      7.6967     13.8442
H      2.6785      8.4619     15.5915
C      0.5904      7.5029      2.8313
H      8.3309      0.9465     21.5665
C      2.0142      0.0298     16.8437
C      0.5351      2.3837     20.1958
C     10.5134     -2.5199     19.3995
C     10.8194     -9.7376     18.5174
C     17.7310     -0.8919     17.5775
C     -9.8161      3.9726     10.1854
C      0.9315      2.5459     14.4419
C     -1.2268      7.6846      1.4963
C      3.7459     -0.3248     21.4149
N      1.7038     -0.9479     17.6243
C      3.6612      1.5423     13.6137
O      4.0966      6.0693     15.1319
C     -3.3058      6.5894      0.2661
H     18.4287     -2.7382     18.8093
H     -0.2661      1.4744     20.1653
C     10.1423     -8.3058     15.7261
C     -2.7316      7.7601      9.4209
H     -4.9466      2.5370      7.8163
H      2.0129      0.9141     20.1937
H     -4.4288      3.5217     10.5544
H     -4.9229      9.1982      8.2055
C     -2.7140      9.6206      0.8409
H     -8.8033      6.4202      9.3553
H     14.4218     -5.5551     21.7882
H      9.9002    -10.5515     18.6418
H     -0.8721      9.3564      2.2450
H      1.1239     10.1474     11.7264
H      4.7148      2.3538     13.6496
H     -0.2500      2.9743     22.0303
C      2.0353      7.4770     15.3200
H      3.8551      0.7072     12.9835
C      0.1688      9.9437     11.7093
H      1.1356     -1.7488     17.2640
C     17.3153     -4.6650     17.0798
C     -5.1130      7.1269      3.0973
C     20.3890     -3.0217     14.2560
C     18.8120     -4.7695     14.6653
C     -8.6135      6.2401      6.3962
C      2.3811      5.0018     15.0974
C     -6.5890      5.7833     -0.0966
C     -7.3011      7.2689      4.1895
C     -4.6112      6.8653      0.8112
C     -8.6144      4.9951      7.5387
C      1.9735      5.2861      0.7137
H     10.1871     -7.2246     19.5417
C     -6.5349      7.1066      5.4250
H      0.2963      1.2268     18.5053
H     10.3796     -7.9504     14.6078
H      1.0819      1.9015     13.6130
C     -5.5366      5.7781      0.8823
H     -0.7180      2.8217     16.6125
O     -5.3515      7.4290      5.6641
H     -4.2163      9.1193     11.3023
H     21.1989     -2.8130     14.9066
H      1.1939      3.1571     16.2304
H     -3.1496     11.0914      2.5451
H      1.4525      4.7173     -1.0606
H     -4.1073      2.2744      9.4946
C     -0.1041      7.6812     11.5734
C      2.9074      6.2936     15.7342
H     14.3247     -7.2019     21.8113
C     11.1263     -8.1769     18.2757
C     13.3041     -6.1892     18.0455
H     17.9329     -4.5806     20.0738
H      2.2122      1.7441     17.0511
C      1.4044      5.8135     17.3384
H      1.4034     -0.7253     20.8304
H      2.2148     -0.2872     14.6880
H      1.6328     11.5433     15.5347
H      0.0570      7.7706      8.3355
C     -4.7644      7.0174      8.2730
C     -8.5280      0.9927      8.5162
C     -6.6386      7.4616      2.9141
C      9.4665     -3.5023     18.9027
C      0.0175      6.2680      2.7690
C     11.6058     -6.4077     16.5047
H      1.8965      3.0778     -0.5661
H     -7.9691      5.2624     -1.6082
H     11.0063    -10.4509     19.4666
C      2.0280      1.1752     22.1368
H     10.7662     -3.2063     20.1886
C      0.7131      5.0903     16.0705
C     -7.4542      3.6289      2.6686
H     -0.7940      3.8636     20.4586
H     -5.8311      8.8784      6.7174
C     -5.6044      3.8443      9.5377
H     10.0368     -0.7416     20.5608
H     -6.1126     10.6557      6.4350
C     14.9705     -6.3934     21.3568
C     11.1359     -6.9640     19.0390
C      2.1601      0.5016     15.5969
C      1.3893      4.6391     18.5830
C     14.8595     -6.4049     19.8067
C      1.6164      4.0374     -0.2212
H     -1.4014      5.6172      1.1647
H      3.8502      1.5191     16.0087
H     -1.9293      8.0299     10.2255
H      2.7659      2.1490     13.4018
H     -4.5959      7.5460      7.3773
H     -6.2649      0.5072      3.5774
C     -0.3619      9.1966      5.0402
C     -3.9058      7.1314      9.5715
H     -8.6902      6.1002     -0.2064
H      9.2318     -3.9456     16.3655
C      8.3521     -1.2835     20.7241
H      9.8958     -9.2660     15.6482
H      8.4631     -3.1310     18.9685
C     -0.2572      7.6902      7.4367
C      0.5013      3.5601     18.1705
O     -4.6056      5.1737      4.5196
C     -1.4218      8.2031      5.5524
C     -6.4649      1.4192      6.9955
C     -7.6168      1.8444      6.1481
C      3.0912      0.7748     19.1050
H     -5.4557      0.6180      6.9631
H      5.8461     -0.5519     22.9935
H     -0.1168     10.6762      5.8646
H     18.1110     -0.6097     18.7021
C      2.0186      4.8843     19.7508
H     -0.2547      4.3554     13.6693
C      4.0516      5.3009     18.0011
C     -9.6308      3.0972      9.1378
H     20.9318     -2.3981     13.6131
H      0.9405      6.5883     -0.4589
C     -4.6720      7.1186     10.6537
H     -9.6807      3.1930     11.0453
H     -1.1560      5.5910     12.1657
C     -8.7878      2.8346      4.3689
C     17.3888     -3.1084     18.5227
C      6.5116     -0.2791     22.0705
C     -5.6965      9.4150      7.6870
C     -7.5343      4.3569      8.1889
C     -7.0244      1.2396      8.5852
H     12.4273     -8.4944     18.1788
H     -2.9140      9.8273     -0.2337
H     -2.7759      5.6425      0.2130
C      1.1887     10.0836     14.1278
H     -8.9741      4.6628     10.1504
H     10.9743     -3.7490     16.8344
267

C     19.7112     -4.2072     13.5800
N     -2.4851     10.3445      1.9917
C      4.0840      1.8111     20.1293
C      2.3440      2.7798     14.9004
C     -5.4720      4.9015      2.1922
H     10.1393     -6.2295     15.3974
C     -5.2353      3.5037      2.7355
C      3.4291      3.8971     18.1985
C     16.2389     -5.5935     19.2993
C     -6.4310      1.6959      3.9434
C     -7.7891      8.3981      9.0318
C      0.7231      8.8099     13.8937
N      0.7107      2.3508     18.8835
C      0.7812      6.4230      0.5862
O     -1.3454      2.8766     14.7968
C      3.2241      4.0878     19.7090
H      1.0945      7.5985     11.5815
C      2.8977      6.2385     17.2678
C     16.3037     -2.6908     16.4934
H      1.0619      1.3410     22.7647
H     11.4779    -10.1481     17.9172
H      4.6955      6.7439     15.1783
C     16.9935     -3.9021     16.1190
H     -8.1841      7.4789     10.3614
H     -8.1972      9.5084      8.9364
H     11.9764     -7.2547     19.9176
C      3.1059      2.6234     20.7223
H     -5.7287      1.7198      4.7581
O      1.1367     10.6176     15.5022
C      7.9867     -0.1493     21.4619
C     -6.7808      6.0434      9.7730
H      2.9175     -0.2720     19.2587
H     -9.3535      5.3797      8.4274
C     -6.3104      2.8019      2.8898
H     -7.0204      3.5968      7.5302
H      4.1975     -1.8216     22.7774
H     15.8546     -5.9792     21.4900
C     16.9789     -2.1217     17.5132
C     10.0733     -4.6117     18.0651
O      2.0520      8.5972      4.7347
C     -1.5239      8.1631      7.1276
C     -4.0558      8.0707     11.5665
C     20.7133     -4.9930     12.6953
C     -6.4069      6.9956     -0.7800
H     -7.4008      4.2334      1.7645
H     17.6344     -3.4667     13.9831
H      1.7835     -1.3115     18.5504
H     -5.9049      6.6591      8.3775
C     -4.7886      2.9036      8.7979
H      0.6830      1.7430     15.1059
C     -5.9107      6.5212     10.8256
C     -5.0461      5.6745      3.1905
H     -4.3078      7.6205      2.4199
C     11.8237     -6.1465     17.9867
H     16.0315     -4.9022     20.8455
H     16.3284     -1.9561     15.6958
H      2.7490      5.8845      0.2674
C      9.7756     -1.6384     20.4885
C     -6.7062      4.8770      9.1185
C     15.9747     -5.2918     17.8809
C     -8.0406      5.2897     -0.3813
C     17.8885     -3.8033     14.8916
H      9.3051     -5.4476     18.1520
H     -4.9606      7.5877      4.1743
H     -9.2607      1.3566     10.6149
H     18.6080     -1.0678     16.8678
C     -0.1441      3.3388     21.0026
H     19.6537     -2.2317     14.4968
C     -0.1740      8.7527     12.5744
C      1.6801      1.8355     20.8789
H     -1.3119      6.1339     10.9781
C     -0.4944      6.3872      1.2710
H     -7.3560      7.4039     -1.1195
H     18.7400     -4.0151     12.8881
C     -2.6231      7.5791     12.4526
O      2.1818     10.4731     13.6416
C     -6.4172      8.6942      8.7485
C     16.6836     -4.5269     20.2054
C     -9.4932      1.6647      9.6716
C      2.5371      1.2923     17.9618
H     -1.4900     10.3044      2.3819
H      5.7780     -0.5086     20.2682
H    -10.7792      4.5215     10.4024
C     -8.6982      3.4778      3.1123
C     -1.7821      8.5195      0.3068
C     -1.3168      6.6415     11.8617
H     11.1367     -2.1928     18.7544
C     -7.6265      2.0869      4.8355
H     16.9673      0.0344     17.0844
C      2.3236     -0.3789     21.6291
C      4.5059     -1.7323     21.7695
C     10.9552     -7.9525     16.6737
C     16.4894     -3.2988     19.4833
C      2.8447      3.7631     15.5610
C     -7.9287      7.0177      9.4855
H      2.1403     -1.0771     22.4051
H      2.8373      7.8330     13.4200
H     -3.5365      4.9593      4.0395
H      0.6291      3.6164     -0.2835
O     -7.2232      6.7580      6.6261
C      0.6894      8.1957      4.3141
H      3.8350     -2.2882     21.1505
C     10.1468     -4.2570     16.6427
C     10.8608     -5.4716     15.6470
H     -5.8942      7.9096      9.4057
C     -2.5170      8.4260      8.2527
H      2.8081      3.7335     17.3624
H     -0.2721      9.7509     10.7797
H     -9.4242      3.8565      0.2728
H      0.4754      4.2856     21.5715
C      3.1627      1.5433     15.1765
C     -0.2051      8.4380      2.1054
O     -8.4854      4.0391     -0.1119
O     -5.3091      3.8334     10.7517
C     -0.2914      3.3330     14.2833
C      0.2573      3.4756     16.6497
C     -5.8193     10.8372      7.4855
H      9.8641     -2.2951     21.5420
H     15.3815     -3.1186     19.5520
H     -0.5413      9.9624      4.3769
H     -0.5073      8.1163     10.5358
O      0.4022      9.7507      6.0144
C      5.8546     -1.3482     21.1897
C     13.6412     -5.9389     19.6249
C      1.7327      7.6366     13.8632
H      2.7826      8.4020     15.8346
C      0.6849      7.6101      2.8456
H      8.5048      0.7886     21.1219
C      2.0103      0.1677     16.9148
C      0.5029      2.3198     20.2279
C     10.5213     -2.6086     19.4850
C     10.7828     -9.7874     18.5282
C     17.6169     -0.8237     17.5956
C     -9.7821      3.9833     10.2588
C      1.0021      2.5270     14.5408
C     -1.2626      7.7136      1.3994
C      3.7876     -0.3372     21.4376
N      1.7508     -0.9465     17.6087
C      3.6463      1.5530     13.6171
O      4.1388      5.9891     15.1223
C     -3.3522      6.6163      0.2749
H     18.5424     -3.2661     18.7223
H     -0.4911      1.7668     20.1732
C     10.0900     -8.3659     15.6289
C     -2.6442      7.7682      9.4107
H     -4.8643      2.5573      7.7386
H      1.5407      0.8741     20.3857
H     -4.3530      3.5300     10.6918
H     -4.5251      9.3083      8.0848
C     -2.7528      9.6970      0.8937
H     -8.1841      6.3063      8.7630
H     14.7233     -5.4777     22.0262
H      9.8920    -10.1764     18.0983
H     -0.7192      9.3410      2.6313
H      1.4946      9.8202     11.7026
H      4.5419      1.8084     13.3452
H     -0.5790      2.8385     21.9904
C      2.0657      7.5708     15.3327
H      3.5224      0.7926     12.8773
C      0.2141      9.9336     11.6916
H      1.4261     -1.8889     17.1054
C     17.4118     -4.7322     17.1040
C     -5.0476      7.2228      3.1376
C     20.3466     -3.1306     14.1550
C     18.9732     -4.7141     14.7609
C     -8.6795      6.1315      6.4429
C      2.2607      4.9349     15.2151
C     -6.6538      5.7297     -0.0266
C     -7.3767      7.3521      4.1183
C     -4.5886      6.8699      0.6718
C     -8.8138      4.9727      7.4767
C      1.9892      5.1808      0.7899
H     10.1215     -7.1008     19.7149
C     -6.5071      7.0123      5.4866
H      0.4574      1.3516     18.7849
H     10.4352     -7.7598     14.8434
H      1.0335      1.9154     13.6074
C     -5.5960      5.7191      0.8663
H     -0.7588      2.9858     16.3721
O     -5.3498      7.3583      5.6410
H     -3.8952      9.0839     11.2709
H     21.3505     -3.2994     14.8715
H      0.7562      2.6484     16.2853
H     -3.1975     10.7291      2.5880
H      1.7346      4.7274     -1.1102
H     -4.0952      2.4585      9.5106
C     -0.0438      7.7846     11.5795
C      3.0040      6.2776     15.7168
H     14.0961     -7.1082     21.7339
C     11.1374     -8.2122     18.2008
C     13.3726     -6.2184     18.0192
H     17.7300     -4.8120     20.2451
H      1.9158      2.0149     17.2992
C      1.3982      5.6569     17.4079
H      1.8164     -0.9694     20.6951
H      2.0235     -0.5481     14.8345
H      1.7645     11.3966     15.6200
H     -0.0985      7.5529      8.4459
C     -4.8044      6.9881      8.2733
C     -8.5482      0.9451      8.4262
C     -6.6207      7.3925      2.9760
C      9.4619     -3.3859     18.9275
C     -0.1452      6.3012      2.7586
C     11.6585     -6.4382     16.5834
H     -7.8880      5.2695     -1.4134
H     11.2656    -10.4448     19.3198
C      1.9406      1.1686     22.2117
H     10.8798     -3.3342     20.2940
C      0.7687      5.0430     16.1859
C     -7.4823      3.6805      2.6106
H     -0.9277      3.6252     20.3391
H     -5.7928      8.8727      6.8648
C     -5.7012      3.7666      9.6177
H     10.2642     -0.3737     20.5954
H     -6.2122     10.8958      6.5190
C     14.8943     -6.4528     21.4239
C     11.0578     -7.0374     19.1181
C      2.2597      0.4020     15.5652
C      1.2938      4.6134     18.5817
C     14.8630     -6.5225     19.8469
C      1.6199      4.0232     -0.2623
H     -1.2185      5.5727      1.0142
H      4.0627      1.8766     15.6741
H     -1.8286      7.8505     10.0160
H      2.7210      2.1320     13.1728
H     -4.4163      7.1479      7.3308
H     -6.4561      0.6796      3.6686
C     -0.3134      9.1296      4.9596
C     -3.8619      7.0708      9.5519
H     -8.8368      6.2496     -0.2032
H      9.0819     -3.8258     16.2939
C      8.3237     -1.3358     20.7300
H      9.5424     -9.2433     15.5965
H      8.4520     -2.8580     18.7476
C     -0.2467      7.5891      7.4839
C      0.6291      3.5468     18.2161
O     -4.6473      5.1517      4.4574
C     -1.5085      8.2263      5.5914
C     -6.4750      1.4647      6.9278
C     -7.5609      1.9169      6.2107
C      3.1455      0.8242     19.0940
H     -5.5803      0.6924      6.7724
H     -8.3181      3.4660      9.1103
H      5.6583      0.0415     23.0861
H     -0.1286     10.4869      5.7502
H     18.2205     -0.5932     18.4912
C      1.9290      4.8417     19.8197
H     -0.2106      4.3821     13.7750
C      3.9868      5.4360     17.9648
C     -9.4747      2.9813      9.1680
H     20.8620     -2.6559     13.3790
H      0.7808      6.4067     -0.5889
C     -4.7664      7.2057     10.6200
H     -9.7479      3.1818     11.1684
H     -1.0852      5.5603     12.1136
C     -8.7468      2.8911      4.4082
C     17.3261     -3.0463     18.5054
C      6.4726     -0.2698     22.0427
C     -5.6842      9.4893      7.6927
C     -7.5953      4.3354      8.2227
C     -6.9912      1.2336      8.6100
H     12.2735     -8.0715     18.4722
H     -2.9722      9.8399     -0.2320
H     -2.7161      5.6143      0.3991
C      1.1679     10.1443     14.1928
H     -8.9954      4.6823     10.2866
H     10.9392     -3.5643     16.6327
