262

C     19.5153     -4.3310     13.6876
N     -2.0327     11.1364      1.2782
C     16.6116    -11.4930     20.1010
C      2.1947      2.4315      1.9411
C     20.4304     -8.2354     15.1537
H     -2.4522      7.3446      2.2010
C     20.4312     -9.5238     15.8188
C     16.1873     -9.0493     18.3510
C     16.2236     -5.7543     19.3829
C     18.9201    -11.0613     17.0001
C      5.5913     -4.8793      9.4105
C     13.9736     -4.1389     13.6662
N      0.0286      2.8655      6.5688
C      0.2310      5.5866      0.5117
O     -1.2453      2.8757      1.0268
C     16.0029     -8.9326     19.8153
H      0.2754      5.8478     -0.5539
C     15.7730     -6.9260     17.3786
C     16.1386     -2.9415     16.4255
H      1.4319      0.4706     10.0303
H     -3.3538      2.8166      4.6467
H     17.8072     -6.5119     15.8670
C     16.9120     -4.1006     16.2207
H      4.4473     -5.9614     10.8798
H      5.2498     -4.0608     10.2244
H     -0.9143      5.5101      6.6854
H      7.7152     -9.6915      8.0854
C     15.9046    -10.2385     20.5579
H     19.9747    -11.5504     17.2730
O     14.1860     -2.0732     15.0257
C     -4.7581     12.2901      8.2304
C      6.1652     -6.9638     10.0051
H      2.6017     -0.2750      6.2267
C     19.1512     -9.6630     16.5367
H     18.5514     -9.7932     19.7315
H      4.4859     -2.3855      9.6112
H      1.7212      5.4111      9.2667
C     17.0580     -2.0955     17.2904
C     -2.8898      8.6881      4.4889
O      2.3326      8.4958      4.7297
C     -1.4967      8.0704      6.8591
C      8.4562     -4.6173     11.7999
C     20.3741     -5.2437     13.0013
C      6.3695     -6.0657     12.1275
H      4.8711      3.7236      1.6732
H     17.0477     -3.5841     14.2426
H      2.4151     -1.6925      4.0473
H     -3.3622      6.4188      8.0279
C      7.7315    -10.2200      9.1373
C      7.0317     -6.1473     10.7881
C     20.5798     -7.3252     16.0347
C     -0.8969      6.9639      4.9548
H     16.6836     -4.5537     21.4171
H      4.0674     -0.8178      2.6649
H     14.6284     -6.1361     13.3018
C     -3.0957     11.2668      7.3187
C      6.0384     -8.3002      9.2507
C     16.1173     -5.5463     17.8668
C      4.6724     -7.5233     12.7522
C     17.7034     -3.8267     15.1249
H     -3.6219      7.9052      4.5575
H     21.2247     -5.3534     16.4906
H     -9.1043     14.0562     10.5782
H     -6.0269     11.8315      9.6269
H     18.1441     -0.1577     16.6592
C      0.0697      3.7150      8.8507
H     20.7825     -2.8578     13.2555
C     13.0377     -4.2144     12.2670
C      1.5606      1.7964      7.9597
H     -1.9003      7.6474      9.4742
C     -0.7189      6.1977      1.4517
H      5.4442     -5.5588     12.1705
C      9.8389     -4.9768     12.5493
O     15.3603     -2.0521     13.2311
C      6.5038     -4.5908      8.2917
C     16.8485     -4.5589     20.2698
C     -9.4559     14.2465      9.5969
C      2.7931      1.4108      5.0335
H     -2.2756     12.0599      1.4374
H      5.7334     -1.0442      6.7911
H     -9.2492     17.6203      9.2015
C      3.8838      3.2169      3.3544
H     -3.4622      8.7457      7.0848
C     -2.2601      8.6981      0.5553
C     10.8174     -5.6101     11.6490
H     -1.5687     10.9272      6.0077
C     18.0763    -10.8622     18.1788
H      4.3793      0.0642      5.9354
C      2.5276     -0.5325      8.9074
C      4.6339     -2.1294      8.4136
C     -2.0285      5.1552      3.6565
C     16.4267     -3.2905     19.4061
C      2.7420      3.5566      2.6325
C      4.9966     -6.1154      9.8774
H     15.7938     -5.1675     13.4176
H     22.2055     -7.4574     16.9420
H      1.5525      5.2790     -0.7962
O     18.4126     -6.1859     19.5253
C      0.8485      8.1875      4.1550
H      4.0958     -2.7447      7.6690
C     -2.4080      9.2815      3.2986
C     -1.8273      7.9337      2.8609
H      6.3376     -4.8291      7.2458
C     -2.5761      8.5543      7.5657
H     15.2165     -8.7415     17.9814
H     13.1793     -3.2990     10.2053
H      4.6026     -9.1854     13.7009
H     -0.9143      4.3801      8.5257
C      3.3186      1.4884      1.8746
C      0.0829      8.6580      1.9337
O      4.3677     -9.0032     12.6506
C     -0.2326      3.0992      1.6956
C      0.1409      3.7862      4.0713
C      7.1060     -2.4833      7.3859
H     -2.4870     10.5087      7.6764
H     15.6224     -3.3355     18.9413
H     -0.4449      9.8766      3.9724
H     12.5359     -5.1669     10.2875
O      0.1983      9.5299      6.2514
C      5.9000     -1.5977      7.7669
C      0.9834      7.4009      6.7540
C     14.9723     -5.1493     13.8395
C      0.5929      7.6323      2.8659
H     -4.2161     13.2337      8.5881
C      2.6590      0.0588      3.7568
C      0.1160      2.4842      7.8882
C     -2.6533     10.8038      5.9211
C     -2.3876      3.4975      5.0745
C     17.9352     -1.0153     17.3913
C     -9.7789     16.9281      9.8952
C      0.7935      2.1473      1.9037
C     -1.2164      7.8733      1.4507
C      3.9428     -0.7508      8.6264
N      2.2065     -0.8872      4.5188
C      4.5889      1.2907      1.0234
O     17.1667     -7.0041     15.1612
C      9.7673     -6.5230     13.2699
H     18.4576     -2.7192     18.6991
H     -0.5316      1.8721      8.4879
C     -2.5825      4.7758      2.4974
C     -2.7882      8.3031      8.9081
H      7.9083    -11.1989      8.8188
H      1.5655      1.1132      7.0601
H      7.9051     -3.4638      9.4295
C     -2.6514      9.9917      0.7823
H      4.5505     -6.5044      8.9668
H      2.5382      7.2966      9.2982
H     -0.0356      9.7124      2.4670
H     14.0992     -2.5587     11.3410
H      4.5896      0.2667      0.8634
H      1.0845      4.1104      9.0064
C     15.0225     -5.6150     15.2628
H      4.4853      1.7022      0.1303
C     13.3122     -3.2985     11.2565
H     14.9027     -2.8200     16.5848
C     17.3617     -4.9758     17.1560
C     20.5384     -5.9540     15.7389
C     20.4730     -3.3140     14.1353
C     18.6532     -4.7027     14.9808
C     17.2197     -7.0899     19.1856
C      2.1903      4.8431      2.2803
C      6.1881     -7.0987     13.0460
C     18.5989     -5.4965     17.3060
C      8.3355     -6.4270     13.5101
C      4.2454     -8.0014      7.2658
C      1.4528      5.0079      0.9243
H     -2.6677      6.1100      6.4632
C     19.4059     -6.0397     18.3964
H     -2.0845      2.7467      4.2933
H     -3.5625      5.0445      1.8487
H      1.0598      1.4259      1.0632
C      7.2496     -7.6839     13.6623
H     -0.6696      2.8339      4.0224
H      8.2641     -3.6391     11.8910
H     19.8864     -2.3773     14.3292
H      1.1584      2.9320      3.7866
H     -1.3253     10.7808      1.8878
H      2.7721      3.8762     -0.0502
H     17.5406     -8.1044     17.2040
C     12.2252     -5.2978     11.5089
H     19.7154     -7.1658     18.4434
C     15.9331     -6.8436     15.6657
H      1.1982      6.9970      8.9486
C     -1.7901      4.7030      5.0364
C      0.4338      7.0971      5.2670
H     17.8199     -4.3394     20.7445
H      1.6803      1.5687      5.0201
C      1.2352      5.8164      4.6936
H      1.7315     -1.2726      8.7192
H      2.1698     -0.5551      1.8718
H     16.1745     -2.4201     15.5278
H     -0.1087      7.8830      8.7333
C     -4.4160      7.0869      8.1164
C     -8.4978     13.5233      8.6339
C     19.1784     -5.3369     16.0943
C     -3.4212      9.9327      5.4400
C     -0.2488      6.3565      2.8518
C     -1.4516      6.7071      3.7373
H      1.2184      3.7096     -0.8869
H      4.4533     -7.1676     11.6329
H     -2.0069      3.0927      6.0163
C      2.0494      0.7511      9.0692
C      0.2442      5.1337      3.5132
C      5.1327      3.6470      2.7595
H      1.2883      4.9246      7.7937
H      8.3492     -4.0686      8.2659
C      6.6551     -9.5061      9.9703
H     -3.1211     12.3240      7.2724
H      7.1171     -3.2365      6.6798
C      2.1600      6.5334      8.8864
C     -1.4514      5.9333      5.8983
C      3.0450     -0.0565      2.4430
C      1.1571      4.7902      5.7546
C      2.0585      6.5765      7.2088
C      1.7851      4.3582     -0.3304
H      4.1010      2.0356      2.7021
H     -3.2307      9.1339      9.7737
H      5.3497      1.7655      1.6284
H     -5.1963      6.6200      7.7625
H     18.5836    -11.7405     16.1289
C     -0.2852      9.1030      5.0245
C     -4.0733      7.3017      9.3712
H      3.7108     -7.4394     13.2691
H     -3.2972      9.6536      2.6741
C     -4.5446     11.2639      7.5421
H     -2.6432      3.9001      1.7721
H     -4.5277     10.0822      5.8334
H     -6.3855     14.3649      9.0858
C     -0.2341      7.7446      7.5039
C      0.2385      3.8837      5.5712
O     21.2457     -7.8433     17.2025
C     -1.5363      8.2686      5.4890
C     -6.6331     14.1566      7.2736
C     18.2904    -10.7741     19.6670
C      3.3261      0.4559      5.9429
H     -5.4425     14.2874      7.0474
H      5.0385     -9.5942      8.4447
H     -0.1412      8.9658      7.0813
H     18.9081     -1.2980     17.7682
C      1.9317      4.9515      6.9786
H     -0.0830      4.1293      1.8441
C     16.8636     -7.7845     17.9436
C     -9.5547     15.6041      9.2992
H     21.3572     -3.2545     14.9108
C      8.2048     -5.4988     10.5677
H    -10.7110     17.4070      9.5493
H     10.2232     -6.1328     10.9054
H     -6.5468     13.3007      6.5077
C      3.8033      2.6314      4.8138
C     17.2390     -2.8984     18.5157
C     -6.2750     12.2210      8.7139
C      7.4409     -3.4193      8.5999
C      5.3605     -8.5028      8.1181
C     -7.0113     13.6513      8.5812
H     -0.4040      3.5365      9.8256
H     -2.9761     10.3692     -0.4570
H      2.6031      1.8600      0.8409
H     18.5958     -4.2964     13.0504
H     10.5922     -7.1486     13.3392
C     14.3061     -2.7631     13.8115
H     -9.6019     16.9924     11.0542
H     -1.7216      9.9966      3.4186
