265

C      7.1845      9.0253      0.9960
N     10.7237     10.7177      1.3334
C     16.7760      1.7228      6.9903
C     14.9215      2.5299      1.5620
C     20.3332      5.2120      2.4009
H      9.9880      6.8168      2.5843
C     20.1438      3.9673      3.2198
C     16.2914      3.8609      5.5716
C     16.1920      7.1252      6.4707
C     18.8641      1.9425      3.7195
C      5.7485      8.1800      9.7043
C     13.9611      8.6012      0.8005
N     12.7019      2.5575      6.3106
C     13.1575      6.0677      0.6413
O     11.4256      2.3556      1.0366
C     16.0039      4.0365      7.0026
C     15.5242      6.0978      4.4736
C     16.3623     10.3099      3.4530
H     14.2842      0.8902     10.0250
H      9.1117      4.1264      5.7731
H     17.1114      7.1498      2.1935
C     16.9501      8.9863      3.3780
H      3.7008      6.8315      9.7203
H      5.9974      8.7239     10.4799
H     21.2022      3.3899      3.2643
H     12.8554      6.7795     -1.5861
H     11.5168      6.1566      6.6330
H      8.7417      2.6610      9.9619
C     15.7261      2.6418      7.6187
H     19.9009      2.3326      3.8450
O     13.9589     10.8672      1.7910
C      8.0073     12.5629      8.6650
C      7.3317      5.8391      9.5964
H     15.5589      0.0356      6.1169
H     15.5033      6.3923      9.5773
C     19.0055      3.2721      3.1230
H      6.3397      4.6653      7.3019
H      5.3532     10.9686      9.4708
H      5.1925      6.2646      8.7523
C     17.2056     10.9293      4.5035
C      9.8275      8.6018      5.1616
O     14.8369      8.6598      4.7933
C     11.4125      8.0069      6.8424
C      8.8333      8.2481     -1.0337
C      7.6541      7.8089     -0.0421
C      6.5559      7.0696     12.0629
H     18.0531      4.5686      1.7118
H     17.3017      9.9578      1.3190
H     14.8631     -1.0364      3.4196
H      7.7981      6.6036      7.7398
C      7.8594      3.4531      9.5889
C      7.4017      6.3385     10.8046
C     20.9461      6.0528      3.2392
H      8.7441      7.4266     14.6424
C     11.6050      6.7025      5.1683
H     16.3313      8.2649      8.2545
H     15.3879     -0.9594      2.1356
H     15.1627      6.9726      0.1966
C      9.6512     11.8500      7.1559
C      6.1649      5.0373      9.3308
O      5.4725      2.8806     10.7085
C     15.7675      7.6242      5.0233
C      4.6719      5.6262     12.6312
C     17.3827      8.8613      1.9451
H      9.4709      7.7919      5.6908
H     20.7261      7.4362      4.5029
H     16.5831      1.1971     10.6978
H     17.8872     12.9853      3.9202
C     12.9423      3.2951      8.7989
C     13.5922      8.6501     -0.5987
C     14.5157      1.7714      7.6505
H     11.0667      7.8160      9.6176
C     12.2820      6.3145      1.5818
H      5.7738      7.7168     11.8065
C     10.0269      7.7862     -0.4809
O     15.4455     10.4595     -0.0483
C      6.4608      8.2894      8.6094
C     16.6815      8.2042      7.3065
C     16.2470      1.4292      9.5405
C     15.8033      1.4985      4.5582
H     10.8162     10.2677      2.1251
H      9.6398     10.2612     -0.6277
H      6.0490     12.0555      6.9384
H     16.3169      4.2834     10.6385
C     16.6248      3.4859      3.2686
H      8.6745      9.8355      6.6440
C     10.7765      8.4127      0.6075
C     11.1574      7.3181     -1.5014
H     11.2441     11.0994      5.7963
C     18.1592      2.3669      5.1183
H     17.2894      0.3603      5.7604
H     10.6660      2.8956      0.7611
C      2.3307     12.4496      8.4738
C      4.6665     11.2257      8.6954
C     10.8320      5.0245      3.4091
C     16.6140      9.5878      6.5458
C     15.1286      3.6182      2.7578
C      4.8710      7.0171      9.6077
H     15.8264      8.3579      0.6101
H     22.6425      5.4487      4.2441
H     15.0917      5.3332     -0.6427
O      5.7894      6.2914      6.8299
C     13.5171      8.0586      4.4451
H      4.1771     10.2796      8.4232
C      9.8842      8.6759      3.6533
C     10.5492      7.4196      3.0589
H      6.2574      7.8687      7.5985
C     10.3210      7.5843      7.6155
H     15.2877      4.0492      4.9368
H     13.4748      8.6244     -2.5142
H      4.7101      4.3848     11.5728
H     13.0518      4.1131      8.0815
C     16.2095      1.3423      1.5094
C     12.9111      8.5921      1.9094
O      4.7109      4.2104     12.4788
O      7.1609      4.1385     11.6678
C     12.5875      3.1925      1.7667
C     12.5902      3.8798      4.3797
C      7.1016     10.4895      7.6011
H      9.4937      7.4830      7.3060
H     15.7524      9.8244      5.7790
H     13.5411      6.1562     -0.3480
O     13.0054      9.8493      5.7521
C      5.9023     11.4801      7.8756
C     13.7404      7.1730      6.6825
C     15.1387      7.6997      1.1169
C     13.5133      7.6810      3.0686
H      8.8849     12.7613      9.4132
C     15.4057      0.3620      3.7123
C     13.2057      2.0938      7.7944
C     10.2692     10.9386      6.1849
C      9.9762      3.4492      5.4319
C     17.8362     12.0530      4.6411
C     16.0500      3.9718      9.6631
C     13.5896      2.2646      1.2310
C     11.8136      7.8830      1.4785
C      3.6593     12.2454      8.4784
N     14.9367     -0.6041      4.4577
C     16.5907      1.8334      0.0916
O     16.7941      6.2314      2.7784
C      9.5779      6.3652     13.1327
H     18.6481      9.7566      5.5971
H     12.6151      1.3314      8.2181
C     10.2960      4.7815      2.1745
C     10.2875      7.8139      8.9864
H      7.9215      4.2275      8.7239
H     14.4979      1.0904      6.7169
H      7.4929      5.1764     12.0065
H      8.0026      9.6721      9.0408
C     10.4988      9.8247      0.3357
H      5.3247      6.1855     10.3820
H     14.2057      7.4800      9.4583
H     12.1207      9.7310      4.0850
H     14.3541     10.1042     -2.0422
H     16.6085      1.2669     -0.8578
H     13.9049      3.4349      9.5107
C     14.9039      7.4324      2.4530
H     16.0160      2.3141     -0.5137
C     13.6221      9.4612     -1.6585
H      5.2263      2.3552     11.6517
H     15.4504     10.2827      4.0804
C      4.3181      8.1165      4.4235
C     20.4063      7.3182      3.3641
C      8.1583      9.8358      1.5969
C     18.7030      8.1346      2.0394
C      4.4308      5.8978      6.5029
C     14.5532      5.0666      2.4920
C      6.0179      6.1602     13.1156
C      5.3951      7.1835      4.2873
C      8.3125      6.7608     13.7251
C      4.0935      4.9473      7.4871
C     14.0158      5.0829      1.1225
H      9.9293      5.7992      5.8282
C      6.2471      6.4072      5.6281
H      9.9259      6.3984     14.2023
H     13.1681      1.3196      0.7003
C      7.1731      5.8616     13.9726
O      7.5863      7.2495      5.9317
H      8.3009      9.2881     -0.8443
H      7.8456     10.2543      2.5268
H     14.5036      3.5894      3.7579
H     12.7265      9.5189      2.5440
H     15.9573      4.3325      0.2788
H     17.3392      5.3807      4.0760
C     12.3432      7.5420     -1.0792
H      6.4388      5.3372      5.0755
C     15.4678      6.2879      3.0459
H     13.8603      6.0257      9.0247
C     11.1290      4.2628      4.5529
C     13.2484      6.8387      5.3304
H     17.8618      8.2304      7.3128
H     14.9131      2.2554      4.9770
C     14.0493      5.6860      4.9172
H      1.7178     11.5931      8.8813
H     14.2713      0.3894      1.8618
H     16.1723     10.6471      2.4906
H     12.7010      8.0126      8.4642
C      8.2431      6.4516      8.6338
C     17.2140      0.6560      8.5803
C     19.0197      7.4298      3.1450
C      9.4041      9.8290      5.8415
C     12.6846      6.2917      2.9121
C     11.3727      6.3589      3.7670
H      4.4407      6.3622     11.6991
H     10.5509      2.9477      6.2668
C     14.7810      0.8851      8.9731
C     13.4056      5.1916      3.6083
C     17.7862      3.6812      2.4672
H     14.2297      5.0952      8.0784
H      8.0366      8.7234      7.4800
C      6.5991      3.7892     10.2704
H     10.1874     12.6411      7.6655
H      6.8810     10.3126      6.4126
C     14.6551      6.8162      8.8737
C     10.9390      5.5991      5.7996
C     15.3951      0.1963      2.2901
C     13.8384      4.6860      6.0215
C     15.0075      6.6337      7.1994
C     14.8163      4.5485      0.1092
H     10.5938      5.5799      1.5328
H     16.9034      1.7866      1.9330
H     17.6326      2.4400      0.3909
H      9.0617      5.6325      8.4152
H      7.3748      2.7012      9.1005
H     18.5719      0.9591      3.4052
C     12.4664      9.0269      4.7889
C      9.0322      7.4958      9.4347
H      3.9859      6.0790     13.4820
C      8.3227     11.8166      7.5437
H      9.5870      4.1010      1.9279
H      8.8489     10.1133      5.0615
H     18.4524      1.8015      9.4115
C     12.7159      7.7714      7.4876
C     13.2870      3.5747      5.5740
O     21.6324      5.7444      4.3548
C     11.2859      8.1725      5.3112
C     19.2885      1.3647      7.1286
C     18.1627      2.0289      6.4235
C     16.2866      0.7489      5.9239
H      8.2152      6.5081      6.3442
H     20.1575      2.0893      6.8409
H      5.2442      3.2292      8.2509
H     12.1721      9.5946      6.2235
H     18.4564     12.2810      5.4954
C     14.8145      5.0522      7.2229
H     12.7050      4.2743      0.9803
C     16.7162      5.1748      5.0149
C     16.2370      2.7641      9.0491
H      8.8222      9.0305      1.6594
C      8.3559      7.6624     10.7240
H      3.7040      5.2049      8.5741
H     10.9515      6.5972     -2.2529
H     19.4734      0.3029      6.5858
C     16.7896      2.6035      4.6315
C     17.5455     10.0096      5.7461
C      6.5640     12.5686      8.8110
C      7.4474      9.1162      8.2189
C      5.5820      4.3858      8.1882
C     18.7013      0.9774      8.6804
H      6.3374      9.5738      0.5655
H      9.0422      5.6618     12.4497
H     12.5151      1.9047      5.6390
C     14.5754     10.2402      0.8869
H     15.5317      4.6855      9.4216
H     10.0189      9.5820      3.2467
