261

C     19.9744      8.3542     13.3578
N     -3.1565     10.4263      1.5775
C      3.7809      1.3757      6.9868
C      2.1078      2.5881      2.1152
C     -5.3429     17.2406      1.9846
H     -2.9180      6.4812      2.6715
C     -5.2979     15.8312      2.2306
C      3.2788      3.9297      5.4485
C     16.3955      7.1242     19.5703
C     -6.4724     14.5961      4.3193
C     -6.7345      8.4534      8.8387
C     13.4328      8.9555     13.7558
N      0.2949      3.0243      6.3480
C      0.7692      6.3158      0.7084
O     -1.5447      2.7868      1.8691
C      3.1520      4.0333      6.7598
H     13.4246      7.3684     11.3340
C     15.5509      6.2721     17.4373
C     17.2070     10.2243     15.6604
H     -1.6370      2.6324      6.6078
H     17.2117      5.2852     15.5841
C     17.3426      8.8070     15.8852
H     -7.9102      7.4167     10.5100
H      7.3619      2.4507      8.1880
H     -0.5063      5.6979      7.0601
H     -7.2604     14.2502      9.6175
C      3.1150      2.7794      7.3706
H     -5.5754     14.5709      4.7046
O     14.1469     10.5699     15.3846
C     -5.3746     11.9669      9.2886
C      6.4882      6.0843      9.4741
H      3.3380     -0.1799      5.8678
H      3.8585      5.5316      8.2886
C     -6.4778     15.4572      3.0207
H      5.1979      3.7312      7.6071
H     -9.3564     11.3386      9.2578
H      1.2618      7.1503      9.0716
C     17.2548     10.7793     16.8858
C     -2.7480      8.7996      4.9724
O      1.8811      8.5943      4.7699
C     -1.2241      8.4811      7.1221
C      8.9110      7.8840     11.6828
C     20.7633      7.3417     12.5831
C     -6.1024     19.4893     -1.1060
H     -7.4459     16.2849      1.7035
H     17.3740      8.9146     13.3976
H      2.1830     -1.2876      5.4729
C      7.7141      3.1621      8.8425
C      7.6362      6.1701     10.4797
C     -4.9525     18.2967      2.9037
H     -4.6059     20.1990      1.9715
C     -1.0641      6.8064      5.1989
H     16.3868      8.2985     21.1818
H     17.1161     10.5004     14.6576
H      2.6915      5.4482      0.3701
C     -3.4639     11.2295      7.8020
C      6.1495      4.9347      9.2254
C     15.8697      7.6746     17.9794
C     -8.0151     18.4044     -0.1617
C     17.6517      8.3776     14.5817
H     -3.5887      8.2398      5.2272
H     -4.6713     20.0388      3.8195
H     -9.5648     14.5784     10.6737
H     -7.9554     10.6121      8.9359
H     18.7295     12.1745     17.6556
C     -0.4495      3.2364      8.4464
H     19.4035      9.3954     14.9043
C     12.9715      9.0475     12.2641
C      1.7905      2.1514      7.8815
H     10.7155      6.9402     10.6429
C     -0.5424      6.2980      1.4657
H     -6.8541     20.4841     -1.1738
H     -3.0793      2.4164      5.4117
H     18.8536      8.8812     12.7569
C     10.2139      7.2504     12.6978
O     15.4408     10.6531     13.5359
C     -5.7640      8.3660      7.7177
C     17.1118      8.3807     20.2290
C     -9.4486     14.5733      9.4601
C      2.5632      1.0917      4.7082
H     -2.0324     10.7614      1.9200
H     -3.2695     11.4877      0.9757
H     -6.7287     12.9248      6.5890
H      3.2067      6.8689      9.2296
C      4.0632      3.4169      3.3464
C     -2.2687      8.3037      0.8013
C     11.2865      6.9486     11.6153
C     -7.7993     14.9456      5.1509
H     17.3244     13.3107     16.8463
C    -11.0642     12.5000      8.5382
C     -8.8929     11.1099      7.3791
C     -2.0126      4.8006      3.9692
C     16.7200      9.6123     19.4879
C      2.6423      3.8711      2.8671
C     -7.4475      7.3128      9.4632
H    -11.9924     12.0793      9.3375
H     15.3884      7.7421     13.5327
H      0.9807      3.4733      0.6517
O     -7.2372     19.3348      6.2333
C      0.6356      8.1566      4.5450
C     -3.1075      8.3447      3.5739
C     -2.1770      7.1573      2.8838
H     -4.8830      9.8178      8.7457
H     -4.7054     15.7566      3.3428
C     -2.5113      8.8195      7.6907
H     -8.7425     16.7122      0.9913
H      0.1062      4.0665      8.9315
C      2.9496      1.3798      1.9783
C     -0.2141      8.6253      2.0413
O     -8.6332     17.2996      0.0852
O      7.3701      3.9274     11.1479
C     -0.3576      3.2121      1.9899
C      0.2023      3.8355      4.2012
C     -6.1485     10.7041      7.4156
H     15.6947      9.9649     18.8519
H     -0.8639      9.8936      4.0052
H     12.1285      8.4552     10.5106
O      0.3339     10.2136      5.6414
C     -7.5689     11.0828      8.0727
C      0.7589      7.2734      6.9360
C     14.5454      7.6270     13.9713
H     15.7621      8.5589     15.3147
C      0.6794      7.7133      3.0974
H     -4.8191     12.8171      8.9298
C      2.1951     -0.0924      3.7720
C      0.5272      2.7938      7.5833
C     -2.8828     10.6514      6.7153
C     -2.4055      3.1097      6.0787
C     17.8196     12.0968     17.1959
C     -9.6861     16.9415      9.8573
C      0.8382      2.2533      1.8404
C     -1.3832      7.5850      1.7118
C     -9.4908     12.0965      8.3298
N      2.3917     -1.3563      4.3990
C      3.5459      1.2096      0.5991
O     16.8436      6.3586     15.3762
C     -3.2311     19.0494      0.5893
H     -6.9270      9.2634      6.0820
C     -2.9725      4.4116      3.0459
C     -2.9637      8.5382      9.3535
H      8.2393      3.9448      8.4887
H     -5.4113      8.4555      5.9228
C     -3.2600      9.1651      1.1894
H     -8.3430      7.4145      9.1332
H      2.0664      5.4590      8.9068
H     -0.5820      9.4782      2.5902
H     13.2392     10.5982     10.8337
H      3.5329      0.0923      0.5329
C     15.0071      7.6617     15.5318
H      2.9610      2.0058     -0.0163
C     13.9127      9.7426     11.3734
H      7.9362      5.0626     10.9290
H      1.5652     -1.9249      3.7034
C     -8.1933     21.2669      4.1825
C     -5.1653     19.7743      2.8495
C     20.2231      9.7229     14.1525
C     18.9783      7.9058     14.5311
C      4.3457      6.0130      6.3223
C      1.9370      5.1885      2.6247
C     -6.6073     18.3520     -0.1595
C     -7.3723     20.1584      4.0735
C     -4.5831     19.1356      0.4884
H     14.5821     10.4754     12.0327
C      4.3393      5.0309      7.4242
C      1.7262      5.2682      1.0528
H     -3.3897      8.4478      6.9858
C     -6.4016     20.0066      5.4238
H      1.5483      1.4396      5.1172
H     -2.8854      4.9554      2.2101
C     -5.4208     18.1039      0.6422
H     -0.9330      3.7535      4.3429
O     -5.2599     20.1206      5.3821
H      8.7343      8.8632     11.5066
H     20.9016      9.7128     15.0442
H      0.6300      2.9490      3.6666
H      1.3870      4.3147     -0.8125
H      4.4931      5.3275      3.9984
C     12.3437      7.9192     11.3637
H      6.5583      4.8425      7.0266
C     15.5874      6.3313     16.0106
C     -1.9292      4.5204      5.4648
C      0.4476      7.1232      5.4667
H     -7.3692      9.1316      8.4562
H      2.7640      1.9099      3.9602
C      1.2738      5.9847      4.8542
H    -11.2694     12.6288      7.5632
H      2.3718     -0.8267      1.8201
H     13.2068     10.4596     15.4834
C     -4.8705      7.1823      7.8421
C     -8.7422     13.5063      8.5237
C     -6.4651     20.2802      2.7541
C     -3.2410     10.1259      5.3418
C     -0.0633      6.2275      3.0501
C     -1.3889      6.3147      3.8920
H     -2.5603     11.8662      8.1062
H      2.5546      3.5986      0.5075
H     -8.2568     18.8583     -1.1716
H     -3.2247      3.5225      6.6842
C    -10.9742     13.9678      8.8485
H     -2.1247     11.4947      6.5904
C      0.8205      5.3058      3.5535
C     -7.6694     15.9416      2.6489
H      1.4177      4.2386      7.7983
H     18.1817      8.2214     19.8581
C      6.9636      3.7943      9.9682
H     -5.9501     11.5489      6.6548
C      2.2462      6.5925      8.7928
C     -1.2267      5.7884      6.1627
C      2.1157      0.1281      2.2955
C      0.8226      5.1695      6.0298
C      2.0176      6.3835      7.3143
C      1.5222      4.0949      0.1977
H     -0.9924      5.4308      1.3367
H      3.8152      1.1891      2.8351
H     -2.9628      9.4843      9.7327
H      4.3439      1.7506      0.4376
H     -3.9615      6.9654      7.2302
H      8.3933      2.4864      9.4705
H     -2.5516     10.8904      4.8451
H     -6.4185     13.4864      4.0269
C     -0.2237      9.2723      4.9284
C     -4.1695      7.5612      9.1446
H     -8.2137     19.0590      0.8938
H     -4.1408      8.5819      3.3380
C     -4.8036     10.9079      8.2527
H     -3.6728      3.6501      3.2239
H     -4.2589     10.0587      5.3213
C      0.0554      8.2776      7.6654
C      0.4118      3.9832      5.6323
O     -4.8144     17.9545      4.2728
C     -1.5037      8.4103      5.5260
C     -6.6842     13.7957      7.2073
C     -7.7371     14.5960      6.5217
C      2.7030      0.7745      6.2274
H     -5.5022     14.0015      7.3137
H     -8.2009     15.8020      8.6519
H     -5.0154     11.6611     10.3754
H     -0.5345     10.4629      6.1896
H     17.2998     11.9380     18.0549
H     -0.0710      7.7263      8.6995
C      1.8828      4.9212      6.9350
H      0.2408      4.2057      1.8527
C      3.6693      5.2971      4.9755
C     -9.1417     15.8239      8.7926
H     20.0667     10.5109     13.6304
H      1.2794      6.5508     -0.4806
C      8.3812      7.2875     10.3441
H     -9.6658     16.9164     10.8727
H     11.6651      5.9137     12.0366
C      4.1401      2.9977      4.6346
C     17.5023      9.7820     18.1297
C     -6.8293     12.0784      8.9593
C     -5.9651      9.3115      6.6653
C      5.7047      4.7426      7.8031
C     -7.2259     13.6464      8.7038
H     -1.2680      3.4357      7.8805
H     -3.8996      9.1193      0.0681
H     -2.6746     18.2300      0.3158
C     14.4857     10.1311     13.9973
H     -9.2493     18.1362      9.9825
H     -2.9945      9.1853      2.8901
