266

C     19.7974      8.8874     13.7251
N     -1.6838     10.3911      1.7307
C      3.9236      1.4392      7.2103
C      2.0631      2.4403      1.8814
C      7.4330      4.8961      2.2556
H     -3.1654      7.1485      2.2076
C      7.4390      3.6861      2.9201
C      2.9934      3.8415      5.3752
C     16.0697      7.0861     19.5000
C      5.8868      1.9497      4.0526
C     -6.9374      8.2813      9.5921
C     13.8294      8.8961     13.6514
N     -0.0821      2.7538      6.3050
C      0.3748      6.0227      0.5985
O     -1.6987      2.7942      0.9394
C      2.9797      4.0415      6.7992
C     15.5874      6.1063     17.5018
C     16.1770     10.3882     16.6419
H    -11.4736     13.5564      9.8599
H     -3.3856      3.7883      5.3478
H     17.0882      6.9249     15.4158
C     16.8929      9.0692     16.1647
H     -7.4602      9.0274     10.2507
H      8.4491      3.6406      3.6577
H     12.7466      7.1976     10.8157
H     -1.4210      5.6209      6.5390
H      8.6421      3.3193      9.4701
C      2.9040      2.5004      7.5208
H      6.6055      1.0624      4.3147
O     14.1757     10.6414     14.9716
C     -4.9413     12.7815      8.4544
C      7.1052      6.1508      9.6326
H      3.1880      6.9196      8.8126
C      6.2233      3.2646      3.4055
H      6.5316      5.1279      7.5680
H     -7.6105     10.6029      9.6234
H     -7.8783      6.5793      9.2476
C     16.9817     10.8555     17.7685
C     -3.2569      8.4007      5.0742
O      1.9533      8.3148      4.7210
C     -1.5932      8.0228      6.8597
C      8.5442      8.5743     11.7425
C     20.5143      8.0345     12.7883
C      6.5335      7.0545     -0.7340
H      5.1511      4.3154      1.8984
H     16.8897     10.2079     14.4060
H      1.6122     -0.9954      3.5908
H     -5.7794      7.7361      8.2932
C      7.6893      2.9159      9.2666
C      7.1438      6.9930     10.8209
C      8.0854      5.9115      3.0585
H      8.5830      7.4292      1.6822
C     -1.2243      6.7761      5.0772
H     16.1905      8.8307     21.0688
H      2.4726     -0.6331      2.1149
H     15.1211      6.9794     13.2312
C     -3.1414     11.5204      7.0198
C      6.2183      4.9055      9.4572
O      5.6938      2.9931     10.7606
C     16.0064      7.3891     18.1699
C      5.0199      5.3750     -0.0247
C     17.4372      9.1238     14.8491
H     -3.8244      7.5968      5.1562
H      7.7740      7.6860      4.0527
H     -8.8645     14.2846     10.4912
H     -6.4706     12.3009      9.9052
H     17.7248     12.9464     17.3044
C     -0.1410      3.2637      8.7998
H     21.1902     10.5696     13.9302
C     13.3240      8.7605     12.1641
C      1.5841      1.7555      7.6104
H     -2.0249      7.3000      9.3105
C     -0.7462      6.1877      1.4450
C     10.0032      7.9371     12.4382
O     15.2781     10.4848     12.9255
C     -6.2463      8.6436      8.3910
C     16.7539      8.3425     20.2305
C     -9.5693     14.3039      9.6311
C      2.7750      1.4692      4.8309
H     -1.9084     11.4915      1.8334
H     -7.2035     12.0360      7.0690
H     -9.1571     16.8142     10.9390
C      3.7267      3.2535      3.2880
H     -4.3893      8.9191      6.5724
C     -2.1991      8.4597      0.6912
C     11.0418      7.4761     11.4729
H     -1.7881     10.5251      5.7853
C      5.0813      2.5091      5.1928
H      4.0674      0.3256      5.6532
H     -1.4792      2.8534      0.0484
C    -10.2812     12.1487      8.4480
C     -8.1199     10.8340      8.5571
C     -2.2915      5.3381      3.6449
C     16.5017      9.4034     19.2770
C      2.3836      3.5591      2.8127
C     -8.2753      7.3746      9.9251
H     15.8701      8.7910     13.7840
H      0.6206     10.9728      0.3415
H      8.1279      5.3435      5.1699
H      2.5002      5.0625     -0.7445
O      5.2411      6.5822      6.6137
C      0.4891      8.0944      4.4160
H     -8.8487     10.1945      8.1842
C     -3.1527      8.7056      3.4987
C     -2.3567      7.6299      2.7513
C     -2.6890      7.7705      7.4980
H      1.9230      3.8197      5.1113
H     13.9572      8.6483     10.3938
H     -0.7609      3.9576      8.3020
C      3.2262      1.7100      1.5346
C     -0.1360      8.4667      2.0372
O      7.4081      4.5733     11.5178
C     -0.4507      2.9499      1.6411
C     -0.2260      3.9249      4.2706
C     -5.4376     10.6363      7.4803
H     -3.4401      7.2740      6.9487
H     15.6331      9.4796     18.8113
H      0.2156      5.7570     -0.3822
O      0.2549      9.8184      5.6892
C     -6.7157     11.5496      7.9014
C      0.7293      7.2739      6.6733
C     15.0269      7.9357     14.0366
H     15.7418      8.0031     15.7362
C      0.4588      7.4369      2.9448
H     -4.2310     13.5957      8.7076
C      2.4578      0.4199      3.8058
C      0.1872      2.2877      7.7081
C     -2.7584     10.6536      6.0967
C     -2.4006      3.3384      5.3334
C     17.7801     11.9463     17.7024
C     -9.8850     16.7713      9.9292
C      0.6846      2.2776      1.1823
C     -1.4189      7.6771      1.6075
C     -8.9649     11.9931      8.5856
N      1.7839     -0.5651      4.4539
C      3.4127      1.4981      0.0126
O     16.6948      5.8609     15.3063
C      9.6120      6.6494      0.2558
H     18.7085     10.0975     19.0587
H     -0.9031      1.5226      7.6701
C     -2.7815      4.9155      2.3323
C     -2.7752      7.7721      8.9135
H      8.0360      3.2284      8.2588
H      1.4193      1.3484      6.8050
H      8.0379      5.3691     11.5121
H     -5.1833      9.8208      9.5798
C     -1.9674      9.8219      0.5505
H     -8.2939      6.7319     10.8195
H      1.9433      7.7616      9.1668
H     -0.5949      9.1454      2.9567
H     14.2766     10.5456     11.4380
H      4.3472      0.6498      0.2746
H      0.8464      3.8177      8.8031
C     14.9263      7.5064     15.4220
H      2.4540      1.2576     -0.6094
C     13.5580      9.5233     11.2295
H      5.9215      2.1705     11.3511
H     15.2485     10.0457     17.1166
C      4.1156      8.1115      4.3961
C      7.4184      7.2489      3.0668
C     21.0054      9.6990     14.5144
C     18.5174      8.3117     14.6246
C      4.2324      5.8900      6.3528
C      1.6209      4.7633      2.6025
C      6.3726      5.8389      0.0827
C      5.4507      7.6755      4.3951
C      8.3458      6.9462      0.8066
H     -0.8403     10.3828      0.2132
C      4.1431      5.0998      7.5425
O     -0.3385     11.3787      0.2963
C      1.4406      5.3072      1.1145
H     -2.9623      5.8560      5.5608
C      6.2343      6.6827      5.4312
H     -3.2696      4.6839      1.2876
H      0.4938      1.3338      0.3608
C      7.3953      5.7066      1.0396
H     -0.8631      3.0499      3.8294
O      7.4620      7.2068      6.0665
H      8.5627      9.5593     11.4313
H     20.9554      9.7961     15.6107
H      1.7499      2.8722      3.4494
H     -0.3897     10.0910      2.0359
H      2.9340      4.0699      0.9748
H      4.4913      4.8854      4.2274
C     12.3992      7.5717     11.6168
H      6.4327      5.9110      4.8231
C     15.5159      5.9723     15.9493
H      1.5186      6.2957      9.6706
C     -1.7210      4.5983      4.8108
C      0.2191      6.9595      5.2167
H     17.8947      8.3549     20.2633
H      1.6486      1.8487      5.0858
C      1.0662      5.6987      4.8403
H    -10.6339     11.1740      8.8992
H      1.3167      0.8118      2.3967
H     16.3162     10.7026     15.7387
H     -0.3893      8.1441      8.6159
C     -4.9639      6.4050      8.5976
C     -8.4702     13.4471      8.3962
C      6.0348      7.6832      3.0306
C     -3.6835      9.5602      5.9169
C     -0.3223      6.2108      2.8689
C     -1.6537      6.5931      3.5743
H      4.3185      5.9762     -0.6183
H     -2.2569      3.5725      6.6799
C    -10.7256     13.6545      8.7740
C      0.4086      4.9331      3.6070
C      4.8792      3.8179      2.8492
H      1.5521      5.0242      8.2465
H     -4.3690      8.7334      8.6119
C      6.7043      3.6950     10.2277
H     -2.6368     12.4193      7.4410
C      2.0139      6.7615      8.8781
C     -2.0325      5.7402      5.7722
C      2.3558      0.6374      2.3211
C      0.7981      4.8376      5.9979
C      1.9554      6.4747      7.1691
C      2.1396      4.5009      0.2061
H     -1.6106      5.5126      1.3943
H      3.9688      2.2183      2.1438
H      3.9934      2.4592     -0.1073
H     -4.4274      6.0672      7.6279
H      7.6676      1.8847      9.0321
H      5.4170      1.2912      3.3383
C     -0.5708      9.0405      4.3623
C     -4.0344      7.2964      9.3802
H      4.6328      6.0325      0.8351
H     -4.2433      8.3794      2.9105
C     -4.5695     11.7780      7.4104
H     -2.7573      3.7609      2.4586
H     -4.3732     10.1887      5.1472
H     -6.8332     14.4968      9.3487
C     -0.1093      7.9428      7.3772
C      0.5430      3.6335      5.4630
O      8.6858      5.6278      4.3066
C     -1.5518      8.0772      5.4209
C     -6.6008     14.2442      7.0651
C      5.2031      2.0269      6.5384
C      3.2408      0.7300      6.1664
H      8.5348      6.7863      6.1158
H     -5.5847     14.9512      6.9502
H      5.5135      3.5234      8.1711
H      0.4263      8.8630      6.0864
H     18.8989     11.8825     18.2445
C      1.7602      4.9658      7.1069
H     -0.1946      3.8641      1.9461
C      3.8013      5.2031      5.1192
C     -9.7534     15.6456      9.0541
H     21.9399      9.3022     14.5205
C      8.4239      7.5651     10.6431
H      3.6689      5.4609      8.3851
H     11.0206      6.7744     10.5248
H     -6.4493     13.3550      6.5482
C      3.6844      2.7017      4.7033
C     17.5123     10.1610     18.8543
C     -6.3516     12.6117      8.7345
C     -5.0309      9.5474      8.5352
C      5.6491      4.4544      8.1088
C     -7.0469     13.7761      8.5000
H      1.6476      3.4455     -0.0333
H     19.2770      9.8144     13.0861
H      9.3260      5.3609      0.5528
H     -1.1589      2.2699      5.9146
C     14.4692     10.1069     13.8079
H    -10.4593     17.6790      9.5422
H     -3.2964      9.6503      3.1996
