264

C     19.9967      9.0507     14.0492
C      4.0119      1.6373      7.1314
C      2.3531      2.9704      1.4972
C      6.9959      4.9730      2.3614
H     -3.8116      3.9058      2.8076
C      7.2063      3.6207      2.8862
C      3.3936      3.9157      5.3853
C     -6.3329      9.7086     10.2349
C     15.8886      6.9975     19.4223
C      6.1465      1.6072      3.9353
C     -7.0579      8.7550      9.4339
C     13.8931      8.6151     14.0577
N     -0.5385      2.9648      6.4747
C      0.6979      6.0675      0.4465
O     -1.4869      2.7151      2.0203
C      3.1720      4.1084      6.9614
C     15.5848      5.9635     17.3852
C     16.6937     10.4129     16.4849
H    -11.6945     13.4511      9.5358
H     -3.9893      3.4212      4.6311
H     17.4558      6.0262     15.1952
H     -7.1101      9.5495     11.9368
C     17.1008      9.0236     16.2817
H     -8.4113      7.7410     10.9018
H     -5.5566     10.5590      9.6797
H      7.0295      3.5967      3.9310
H     12.7236      6.6051     11.4150
H     -0.9372      5.4211      6.9226
C      2.9540      2.7757      7.6119
H     -2.4658      9.8803     -1.0464
H      7.2129      1.2598      4.2905
O     15.4924     10.3037     14.6067
C     -4.6395     12.5047      8.7998
C      6.7489      6.0450      9.5481
H      2.7120      0.0023      6.6050
H      2.6058      6.0519      9.4660
C      6.3555      2.5054      2.7730
H      6.2351      4.5034      7.0395
H     -5.3886      8.8571     10.5585
H     -8.1698      7.1475      9.0398
C     17.4269     10.7291     17.7600
C     -2.9064      8.7776      4.8847
O      1.9571      8.7147      4.9545
C     -1.5706      8.1222      7.1862
C      8.6556      8.2965     12.1058
C     20.4129      7.9405     12.9111
C      6.2069      7.3499     -0.9445
H      5.2900      3.9472      1.6804
H     17.9110     10.2418     15.0652
H      2.1548     -0.8071      3.1392
H     -4.8935      5.7805      7.8172
H     15.5552     11.2888     14.3667
C      7.0652      6.5730     10.8741
C      7.6989      5.7300      3.3435
H     21.9987      8.6286     15.0538
C     -1.4631      6.7092      5.1357
H     15.1894      8.7214     21.0691
H      4.1707      0.3282      2.7370
H     -6.4263     11.3730     11.3364
H     15.0478      7.0853     13.3672
C     -2.9382     11.3944      7.5528
C      5.7458      5.1477      9.3950
C     15.8979      7.4053     18.0242
C      4.6156      6.2141      0.6938
C     17.9598      9.2179     15.2112
H     -3.4712      7.9162      5.0885
H      8.3650      7.2019      4.5033
H     -9.5615     14.6465     10.6085
H     -6.4419     12.1213      9.7815
H     17.8579     12.3368     16.6411
C      0.2173      3.8205      8.6087
C     13.1775      8.3275     12.4656
C      1.7658      1.9155      7.6670
H     -2.6474      6.2524      8.9290
C     -0.6045      6.4070      1.3590
H      5.3693      7.9892     -0.5009
H     -2.4706      2.7514      4.2002
H     -7.9494     10.5543     10.8593
C      9.6865      7.7187     12.8643
O     14.3608     10.7769     12.8282
C     -6.5646      8.5125      7.9153
C     15.9004      8.4073     20.0353
C     -9.4852     14.5097      9.5399
C      2.5967      1.6543      4.8474
H     -0.8708      9.5368     -0.3515
H     -7.1195     12.3700      6.8339
H     -9.3837     17.0410     11.1213
C      4.0168      3.4177      3.3811
H     -4.0876     10.4587      5.5243
C     -2.1654      8.5438      0.5368
C     10.7899      7.3668     11.7235
H     -2.1112      9.7165      7.1126
C      5.1820      2.2132      5.0458
H      4.2684      0.2721      5.5454
H     -4.2041     13.5153      8.6548
C    -10.3912     12.5051      8.5133
C     -8.2034     11.0705      8.2540
C     -2.2850      5.2844      3.5568
C     16.5368      9.4002     19.3649
C      2.5540      3.5368      2.7743
C     -8.2694      7.9968      9.6847
H     16.1112      8.5011     14.3067
H     -3.2768      5.4428      1.8055
H      1.6852      3.0032      0.1134
O      5.8358      6.6750      6.4267
C      0.7263      8.2131      4.5777
H     -8.9971     10.4637      7.4503
C     -2.7653      8.7873      3.3741
C     -2.0046      7.6496      2.7060
H     -7.2792      8.6621      7.0827
C     -2.8191      7.5447      7.8023
H      2.5595      4.2372      4.8078
H     13.7682      7.9807     10.7403
H      6.2745      1.9995      1.8707
H      1.0764      4.0068      8.9698
C      3.2004      1.7816      1.1719
C     -0.0436      8.5887      2.2324
C     -0.2622      3.2588      1.8890
C     -0.2885      4.0675      4.1972
C     -5.4449     10.6494      7.0290
H     -3.6915      7.1732      7.1709
H     15.9651     10.5477     19.4897
H      1.0566      6.1667     -0.7018
O      0.0954      9.4746      6.3253
C     -6.6311     11.4956      7.6576
C      0.6008      6.9812      7.0506
C     15.0709      7.8099     14.1284
H     15.6901      8.2494     16.2460
C      0.5781      7.6048      3.0693
H     -4.3846     12.2551      9.8492
C      2.4888      0.6475      3.7637
C      0.2681      2.5235      7.7639
C     -2.3463     10.5131      6.4731
C     -2.8362      3.4530      4.9067
C     18.1540     11.8267     17.5853
C     -9.8337     16.7240      9.9201
C      0.9128      2.4281      1.4835
C     -1.1591      7.9350      1.5295
C     -9.1168     12.3612      8.1845
N      1.7339     -0.3793      3.9615
H      3.9327      0.5278     -0.1825
C      2.9224      1.1325     -0.0585
O     17.0252      6.1797     16.0605
C      9.2974      6.5366      0.7779
H     18.7475      9.2926     18.3896
H     -0.2831      1.4866      8.1751
C     -3.2139      4.8130      2.6577
C     -2.5876      7.2652      9.1895
H      1.7669      1.4887      6.6522
H      7.4123      4.8080      0.1623
H     -4.6966      8.6629      6.8905
C     -2.0286      9.6963     -0.1357
H      4.7851      5.6446      9.7562
H      2.3525      7.6866      9.0620
H     15.1074      9.1142     11.4627
H      3.4444      1.7656     -0.5822
H     -0.5690      3.4998      9.1157
C     15.0954      7.4276     15.6537
C     13.9754      8.6232     11.5424
C     -6.9797     10.4448     11.1294
H     15.5172     10.1186     16.5317
C      4.3278      8.1002      4.4569
C      7.8446      7.0086      3.2351
C     21.1702      9.4301     14.6514
C     19.2295      8.4779     15.0578
C      4.5572      5.7395      6.2460
C      1.6828      4.8781      2.6886
C      5.8409      6.1389      0.1479
C      5.8444      7.3284      4.3480
C      7.8505      6.7339      0.7010
C      4.2862      5.0303      7.5177
C      1.4340      5.0961      1.2320
H     -2.5913      5.5059      6.5621
C      6.6562      6.9936      5.4279
H      9.3933      5.4287      0.5470
H      1.0723      1.6316      1.9856
C      6.8896      5.5866      0.8693
H     -0.2014      3.3497      3.1743
O      7.8232      6.4492      5.7780
H      8.4492      9.4836     11.8261
H      1.7327      3.0412      3.3200
H     -0.2883      9.5752      2.3410
H      3.3155      4.4759      0.2796
H      4.6277      4.8639      4.2662
C     12.0738      7.4675     11.7055
C     15.6428      6.1287     15.9879
H      1.2791      6.3539      9.3482
C     -2.1170      4.5732      4.7181
C      0.3525      6.8750      5.3995
H      1.8027      2.2364      5.0939
C      1.1796      5.6762      4.8845
H      2.8323      0.0151      1.9724
H     16.9507     11.3006     15.7970
H     -0.6231      6.7151      8.8083
C     -4.9379      6.4328      8.8156
C     -8.4096     13.7743      8.3753
C      6.6496      7.7511      3.1542
C     -3.0891     10.3096      5.2960
C     -0.1560      6.3522      2.9324
C     -1.4919      6.4634      3.5480
H      3.7132      6.8295      0.5149
H     -2.2973      2.8162      5.9047
C    -10.8127     13.7993      8.8695
C      0.5274      5.2620      3.4505
C      5.0103      3.3374      2.4363
H      1.0084      4.3949      7.1773
H     -6.1137      7.3196      7.7421
H     -2.2775     12.0799      8.2407
H     -5.5174     10.4905      5.8738
C      2.0269      6.6006      8.7925
C     -1.6298      5.5170      5.9565
C      3.3613      0.8973      2.4662
C      1.0468      4.5293      5.6957
C      1.8775      6.3171      7.4220
C      2.3316      3.9512      0.4762
H     -1.2327      5.6631      1.8453
H      4.0366      2.4158      1.3311
H      2.2626      0.3851     -0.4652
H     -1.4406     11.0704      6.4325
H      5.7463      0.8374      3.1545
C     -0.4965      9.1700      5.0706
C     -4.0155      7.2454      9.5613
H      4.5905      5.5247      1.3887
H     22.0612     10.0688     14.3355
C     -4.2737     11.4651      7.7001
H     -2.4703     11.0323      4.5868
H     -6.6421     14.6346      9.2813
C     -0.5102      7.4363      7.8899
C      0.2899      3.4477      5.3384
O      8.4995      5.0091      4.2711
C     -1.6269      8.2272      5.4444
C     -6.5132     14.2386      7.1186
C      5.3520      1.9345      6.2769
C      3.2695      0.8865      6.1761
H      9.3439      5.5228      5.0492
H     -5.5812     14.8174      7.6376
H      5.4317      3.4416      8.3292
H     -4.9037      9.4207      8.5111
H     19.1445     11.9142     18.3684
H    -11.0675     11.6143      8.0613
C      1.9150      4.7970      6.9817
H      0.2778      4.3945      1.9064
C      4.0212      5.2521      5.0141
C     -9.6894     15.8300      9.0807
H     20.9972      9.6614     15.6876
C      8.2909      7.7528     10.6755
H      4.0960      5.8514      8.0267
H     10.4479      6.3534     11.4042
H     -5.9720     13.4702      6.4378
C      3.7289      2.6068      4.6501
C     17.6433      9.4450     18.4123
C     -6.1827     12.6055      8.5638
C     -5.2397      9.2754      7.5778
C      5.4920      4.4498      8.1213
C     -6.9468     13.8101      8.6117
H     -0.3053      4.5359      7.9764
H     -1.6923      7.9217      9.7522
H      0.5676      2.0047      0.4080
H     19.6490      9.9753     13.6684
H      7.3635      5.7898     11.3623
H     -0.8470      2.0395      6.0381
C     14.2649     10.1223     13.8695
H     -9.5515     17.4944      9.2370
H     -2.4592      9.9597      2.7574
