270

C     19.7307      8.8530     13.8840
N     -1.7694     10.7766      1.3998
C      3.9560      1.6556      7.1196
C      1.9634      2.5176      1.6179
C      7.6271      5.0477      2.3129
H     -3.0913      7.0133      2.6908
C      7.3345      3.8669      3.0247
C      3.1918      3.8553      5.4066
C     16.1584      7.0496     19.4795
C      5.8941      2.0517      3.8464
C     -7.0938      8.1131      9.6009
C     14.0605      8.8124     13.6869
N     -0.2783      2.6887      6.4392
C      0.4854      6.0642      0.4599
O     -1.6577      2.8828      1.0224
C      3.0937      3.9246      7.0348
C     15.5168      6.0289     17.4784
C     16.4273     10.3042     16.6576
H    -11.8495     13.8028      9.6913
H     -3.4219      3.9526      5.7057
H     16.7807      6.8975     14.9358
C     16.8291      8.9473     16.0642
H     -9.0169      7.2841     10.3557
H     -6.8786      8.7333     10.5978
H      8.0618      2.9575      3.3049
H     13.2484      7.0004     11.1780
H     -1.2515      5.5111      6.7671
H      8.2347      2.8706     10.4234
C      2.9119      2.6144      7.6883
H      7.0305      1.3827      3.6262
O     14.1913     10.8589     15.0057
C     -5.0919     12.7099      8.5034
C      6.9730      6.0493      9.7043
H      3.0646     -0.1307      6.4498
H      3.1473      7.1373      8.8782
C      6.0890      3.3798      3.3215
H      6.0196      4.7299      7.2733
H     -7.9627     10.6787      9.5838
H     -8.3885      6.7474      8.9783
C     17.0077     11.0318     17.9167
C     -3.0940      8.5161      5.0139
O      1.8461      8.3358      4.9449
C     -1.4350      8.0804      6.8831
C      8.5364      8.4998     11.8745
C     20.4334      7.8429     12.8641
C      6.6484      6.9127     -0.8555
H      4.6852      4.6612      2.0892
H     17.0971     10.0724     14.3910
H      1.8937     -1.4529      3.9311
H     -5.8529      6.8702      8.0273
C      7.8707      3.2483      9.5794
C      7.3107      6.7100     10.8335
C      8.2878      6.1325      3.1813
H      8.2755      7.4247      1.7369
C     -1.2923      6.7637      5.0046
H     16.5626      8.5301     21.4771
H      2.3706     -0.5846      1.8689
H     15.3940      7.1559     13.3992
C     -3.2644     11.6707      7.1009
C      6.0728      4.9751      9.6207
O      5.7307      2.8893     10.5979
C     15.7865      7.3384     18.0154
C      4.8744      5.6826     -0.0588
C     17.4619      9.0822     14.8856
H     -3.7946      7.6459      5.3829
H      7.4159      7.7240      4.1017
H     -9.1427     13.9502     10.6201
H     -6.6334     12.2549      9.7010
H     18.0146     12.3699     16.8441
C      0.0262      3.1692      8.6056
H     21.1664     10.2931     13.9999
C     13.3670      9.0061     12.2177
C      1.6186      1.7342      7.6438
H     -2.0462      7.9649      9.5729
C     -0.9117      6.3429      1.1896
H      5.4944      7.3691     -1.2800
C     10.0987      8.0589     12.4270
O     15.2203     10.4984     12.8848
C     -6.4019      8.5406      8.5863
C     16.7494      8.2556     20.4529
C     -9.5100     14.3706      9.4098
C      2.7068      1.6249      4.8562
H     -1.7245     10.9515      2.4683
H     -3.0391     10.1562     -0.3068
H     -7.2854     11.9227      7.0627
H     -9.9554     17.0528     10.9505
C      3.8110      3.3385      3.1936
H     -4.4549      9.2918      6.6130
C     -2.1305      8.5526      0.5950
C     11.1926      7.9160     11.4877
H     -1.8661     10.6492      6.0136
C      5.3314      2.2048      5.1276
H      4.3583      0.3502      5.7269
H     -1.5218      3.5529      0.0979
C    -10.3552     12.3588      8.7810
C     -8.2534     11.1692      8.4879
C     -2.2311      5.2261      3.4233
C     16.6518      9.4081     19.5761
C      2.4597      3.4000      2.7859
C     -8.1134      7.1945      9.9734
H     16.1391      8.7837     14.0866
H      8.2265      4.7927      4.7157
H      2.3808      4.9696     -1.1580
O      5.4207      6.3554      6.5557
C      0.7034      7.9191      4.3906
H     -8.8048     10.2501      8.2629
C     -3.1116      8.8038      3.5262
C     -2.3726      7.6631      2.8877
H     -6.6176      8.3336      7.5183
C     -2.6233      7.5268      7.4003
H      2.2554      3.6898      5.0077
H     13.5219      9.2722     10.2492
H      4.1601      3.9390     -0.5469
H     -0.2569      3.9364      8.0498
C      2.8608      1.5919      1.3504
C     -0.0843      8.6494      1.8632
O      4.9278      4.1236     -0.0770
O      7.1712      4.3624     11.5341
C     -0.5122      3.1050      1.5790
C     -0.3675      3.8376      4.3203
C     -5.7364     10.6532      7.3670
H     -3.6223      7.1713      7.0736
H     15.6390      9.3304     19.0753
H      0.6050      5.9205     -0.5960
O     -0.0790      9.8884      5.5924
C     -6.8552     11.4584      7.8647
C      0.6867      7.1899      6.6866
C     15.1158      7.9866     14.0521
H     15.3953      8.4648     15.9040
C      0.4788      7.6328      2.7821
H     -4.3785     13.4464      8.6836
C      2.3214      0.6433      3.8435
C      0.3057      2.1522      7.6639
C     -2.9057     10.7040      6.2399
C     -2.5378      3.4715      5.1888
C     17.7403     12.1170     17.7623
C     -9.9843     16.8943      9.8688
C      0.6330      2.2451      1.3609
C     -1.4676      7.8166      1.5645
C     -8.9300     12.3197      8.2774
N      2.1291     -0.5715      4.4037
C      3.4283      1.4563     -0.0143
O     16.9139      6.1744     15.5556
C      9.5688      6.7629      0.1580
H     18.4981     10.1423     18.6576
H     -0.2734      1.3566      7.8479
C     -2.8111      4.7020      2.2684
C     -2.7662      7.4593      8.7454
H      8.8998      3.5635      8.7634
H      2.0115      1.1437      6.6131
H      7.8230      5.2101     11.6335
H     -5.1417      9.8508      9.3748
C     -2.4388      9.9327      0.5456
H     -7.9092      6.4268     10.9313
H     -0.8392      9.5018      3.6248
H     14.2595     10.5248     11.4658
H      4.0321      0.4646      0.0606
H      1.0794      3.5556      8.7893
C     14.9065      7.5508     15.5710
H      2.6798      1.4249     -0.9195
C     13.7653      9.6156     11.1861
H      6.1318      2.1727     11.1610
H     15.5186     10.3852     17.2545
C      4.0744      7.9096      4.3079
C      7.3139      7.1579      3.3363
C     21.0797      9.3770     14.4311
C     18.6413      8.4205     14.7538
C      4.2136      5.8969      6.4951
C      1.7692      4.9018      2.5502
C      6.3204      5.7382      0.1660
C      5.4700      7.5158      4.3371
C      8.2378      6.8517      0.7455
C      4.0413      4.9241      7.6562
C      1.3639      4.9594      1.0243
H     -2.9280      6.0125      5.8073
C      6.1106      6.5332      5.3760
H     10.3376      6.4216      0.9296
H      0.5734      1.1164      0.7290
C      7.4577      5.7807      1.0983
H     -0.7964      3.2682      3.4773
O      7.3141      7.1268      5.8868
H      8.8083      9.5812     11.9605
H     21.2189      9.5816     15.4841
H      1.8126      3.0216      3.6623
H     -0.0881      9.6167      2.1022
H      2.7593      3.6798      0.0675
H      4.6921      5.0994      4.5637
C     12.5094      7.9042     11.8791
H      6.4274      5.6234      4.6638
C     15.4444      6.0384     16.0205
H      1.6859      5.6240      9.4086
C     -1.6894      4.5346      4.5739
C      0.2655      6.9004      5.2620
H     17.8945      8.1209     20.2592
H      1.5609      1.9473      4.9088
C      1.1923      5.7474      4.7801
H    -10.7820     11.5378      9.2888
H      1.1206      0.2583      2.2810
H     16.0715     11.1398     15.9281
H     -0.1349      8.5664      8.6089
C     -5.0720      6.4389      8.5646
C     -8.6336     13.7335      8.3946
C      6.0489      7.5458      2.8937
C     -3.8222      9.6911      5.7375
C     -0.2786      6.3910      2.7089
C     -1.6205      6.6125      3.5558
H      4.3621      5.9606     -1.0202
H     -1.9721      3.0292      5.8547
C    -10.7514     13.6588      8.9963
C      0.4616      4.9618      3.4630
C      4.8444      3.8704      2.7125
H      1.2290      4.4766      7.9063
H     -4.2420      9.2891      8.1227
C      6.8526      3.8094     10.4415
H     -2.3276     12.2735      7.7691
H     -5.9571     10.2339      6.4136
C      2.0356      6.6053      8.7678
C     -1.8371      5.6663      5.6995
C      2.0641      0.4792      2.3231
C      0.7880      4.7588      5.8349
C      1.8905      6.5790      7.3268
C      2.2380      4.5210     -0.0396
H      3.8658      1.5457      1.9895
H      4.1553      2.4271     -0.1836
H     -4.7996      5.5468      7.9962
H      7.1365      2.5734      9.1456
H      5.3891      1.5599      2.8846
C     -0.5816      8.9675      4.5907
C     -3.9741      7.2345      9.1133
H      4.0805      6.3100      0.5810
H     -4.0888      8.4032      3.1786
C     -4.7187     11.7159      7.6214
H     -2.9839      3.6615      2.6649
H     -4.3428     10.1845      4.9991
H     -6.7902     14.4318      9.3849
C     -0.2605      7.9290      7.5613
C      0.1513      3.5813      5.6025
O      8.6978      5.6532      4.3907
C     -1.6251      8.1517      5.4233
C     -6.6406     14.3421      7.2538
C      5.2389      2.0070      6.4451
C      3.3537      0.7889      6.1292
H      7.6032      6.2234      6.3207
H     -5.7485     15.1415      7.4355
H      5.2031      3.4701      8.0309
H      0.5251      9.5017      6.4322
H     18.4564     12.2768     18.5442
C      1.9049      4.9405      6.9252
H     -0.1781      4.1334      1.7892
C      3.6933      5.1717      5.1629
C     -9.7232     15.8026      9.1553
H     21.7923      8.5521     14.4143
C      8.3036      7.6734     10.6130
H      3.1865      5.1625      8.2411
H     10.7636      6.9614     11.1996
H     -6.2185     13.4461      6.8595
C      3.7956      2.7125      4.5479
C     17.5325      9.8406     18.6819
C     -6.4732     12.6676      8.6935
C     -5.2618      9.4307      8.4601
C      5.4117      4.4136      8.2382
C     -7.1329     13.8831      8.5459
H     -0.4140      3.0922      9.5379
H      1.6058      3.8835     -0.5194
H     19.4639      9.8581     13.6145
H      9.8370      5.8369     -0.3562
H     -0.5933      2.0188      5.9403
C     14.5420     10.1154     13.9346
H    -10.4454     17.6786      9.3810
H     -2.9249      9.8248      3.0524
