264

C     19.9254      8.9530     13.9253
C      4.1701      1.5956      7.3581
C      2.0024      2.8440      1.4417
C      7.2407      4.7949      2.6258
C      7.4552      3.4679      2.7739
C      3.0780      3.9070      5.3138
C     -5.9453     10.0340     10.3266
C     16.4113      7.0833     19.6933
C      5.9946      1.6556      4.1310
C     -6.7716      9.1497      9.4859
C     13.8464      8.7937     13.7832
N      0.0684      2.8989      6.4662
C      0.7284      5.9908      0.4989
O     -1.4844      2.2878      1.2721
C      3.1753      4.1179      6.9081
C     15.5859      6.1853     17.4500
C     16.7497     10.4942     16.7958
H    -11.4372     13.5276      9.6281
H     -3.6557      3.4602      5.5405
H     17.3589      6.9955     16.2853
H     -6.5998     10.5549     12.2746
C     17.2565      9.2529     16.3317
H     -8.5192      9.0556     10.9474
H     -5.1155     10.5699      9.7554
H      8.0300      3.1673      3.4932
H     12.7127      7.1826     10.7521
H     -0.8844      5.3658      6.8145
C      3.0285      2.8469      7.7874
H     -3.5419      9.2964     -1.2836
H      6.9337      1.0245      4.0504
O     15.3624     10.3993     14.8959
C     -4.8443     12.6391      8.5852
C      6.6219      6.1006      9.6548
H      2.5084      0.2107      6.7249
H      3.1653      6.8174      9.8043
C      6.1145      2.7721      2.9141
H      6.6259      4.6916      7.8925
H     -5.6688      9.0958     10.8102
H     -7.8291     10.8351      9.3351
H     -7.9950      7.5045      9.7650
C     17.7050     10.8432     17.8463
C     -2.9331      8.8261      4.9989
O      2.0537      8.6221      4.9286
C     -1.2999      7.9657      7.1122
C      8.6926      8.0443     12.0568
C     20.5638      7.8404     13.2617
C      6.2166      7.1871     -0.5420
H     11.5720      8.7693     11.2614
H      5.0132      4.5909      2.1240
H     17.4008      9.9704     14.5394
H      2.0734     -1.1428      3.0374
H     -4.8728      6.0215      7.9367
H     15.0291     10.0443     15.7634
C      7.0863      6.4679     11.2610
C      7.7186      5.6813      3.5413
H      8.3337      6.8764      2.0622
C     -1.0281      6.7635      5.0438
H      4.2033      0.6081      2.2541
H     -6.8027     11.6958     11.2238
H     15.6802      6.9664     13.8866
C     -2.9116     11.5242      7.8656
C      5.3904      5.4127      9.6013
C     16.0626      7.6081     18.1995
C      4.3072      5.8644      0.5146
C     17.7157      9.2190     15.1079
H     -4.0198      8.3841      5.4733
H      8.8382      7.2322      3.4366
H     -9.6034     13.7460     10.3817
H     -6.5980     12.2842      9.6992
H     17.8867     12.4748     16.5885
C      0.1691      4.0147      8.9086
C     13.3918      8.4796     12.1615
C      1.7548      1.7886      7.8869
H     -2.1349      7.3064     10.0299
C     -0.4190      6.4694      1.5035
H      5.5243      7.5183     -1.1044
H     -2.6462      2.4133      5.2630
H     -7.7793     10.0512     11.1236
C      9.9858      7.4927     12.5388
O     14.4193     11.1557     13.1567
C     -6.4322      8.9039      8.1558
C     16.2866      8.4270     20.3508
C     -9.5157     14.3887      9.5329
C      2.8777      1.3463      4.7653
H     -2.4798     10.5248     -0.5084
H     -7.1766     12.4288      7.2940
H     -9.7245     16.5543     10.9314
C      3.6836      3.1467      3.1873
H     -3.9627     10.1780      5.9556
C     -2.2475      8.5608      0.2972
C     11.2454      6.9089     11.9354
H     -2.3350      9.4663      7.4309
C      4.9963      2.3472      5.2128
H      3.7810     -0.3613      5.0213
H     -4.6932     13.1966      7.6449
C    -10.3191     12.2976      8.1182
C     -8.1188     11.1098      8.2713
C     -2.3357      5.1034      3.4604
C     16.6537      9.5566     19.4841
C      2.2874      3.6786      2.8757
C     -7.8027      8.5878     10.1713
H     15.9059      8.6106     14.1633
H     -3.5234      4.7440      2.1368
H     14.0709     11.7606     13.8973
H      1.8689      3.7967     -0.8685
O      5.8520      6.1090      6.4393
C      0.6623      8.1308      4.4093
H     -8.8236     10.4511      7.6426
C     -2.5782      8.9812      3.7498
C     -2.2154      7.8074      2.9690
H     -7.2773      8.5771      7.3994
C     -2.7416      7.4523      7.7069
H      2.0654      3.6361      5.0328
H     14.1420      8.8045     10.4268
H      6.0993      1.7534      2.2868
H      1.1189      4.5261      9.1779
C      3.0407      1.6404      1.1649
C     -0.2429      8.6325      2.0755
C     -0.5757      3.0745      1.5173
C     -0.3678      4.0636      4.2241
C     -5.5589     10.8786      7.1599
H     -3.7016      7.1744      7.5460
H     15.9310     10.0791     19.0219
O      0.0697      9.5512      6.3404
C     -6.7903     11.6379      7.5513
C      0.8658      7.2837      6.7679
C     15.0175      7.9100     14.1879
H     15.3022      8.3405     16.2720
C      0.5862      7.6699      3.0591
H     -4.4673     13.3905      9.2469
C      2.5810      0.5505      3.4943
C      0.4528      2.7110      8.0881
C     -2.1876     10.5881      6.8787
C     -2.6722      3.4705      5.4500
C     18.1339     11.9946     17.4737
C     -9.7660     16.7715      9.9813
C      0.5368      2.5334      0.5938
C     -1.4579      8.0013      1.5174
C     -8.8796     12.4279      8.3404
N      1.9744     -0.4856      3.7347
H      3.7997      0.5185     -0.0705
C      2.9209      1.1068     -0.3034
O     16.9407      6.3170     15.5668
C      9.3325      6.1784      0.3575
H     18.6886      9.4235     18.9201
H     -0.3928      1.9790      8.6278
C     -2.9139      4.1890      2.8338
C     -2.6952      7.5087      9.1490
H      1.7431      1.5710      6.8551
H      6.9998      4.7919      0.0387
H     -4.9297      8.7258      7.2225
C     -2.7124      9.6373     -0.6360
H      4.3813      5.2663     10.2892
H      1.8630      7.8394      9.5806
H     -1.0280      9.8296      4.9014
H     15.1425      8.3233     11.7925
H      3.7051      1.8319     -0.9015
H     -0.9657      3.6363      9.5138
C     14.8038      7.4617     15.6651
C     14.3833      9.2033     11.2775
C     -6.9367     10.5860     11.3729
H     15.5790     10.8039     17.0354
C      4.5332      8.0917      4.3098
C      7.8590      7.0000      3.1655
C     21.1432      9.5425     14.8122
C     18.9426      8.5597     14.9671
C      4.4728      5.9771      6.3811
C      1.6654      4.9097      2.4642
C      5.6096      6.1062      0.1148
C      5.8987      7.6272      4.3665
C      8.0565      6.2809      0.8294
C      4.2538      4.9353      7.4077
C      1.6584      5.2137      0.9031
H     -2.6676      5.9807      6.2418
C      6.5965      6.8302      5.4487
H      9.8454      5.3590      0.0008
C      6.9015      5.2207      0.9337
H     -0.5479      3.2117      3.5827
O      7.7140      7.3225      6.0149
H      8.1781      9.0211     11.3859
H      1.6181      3.3104      3.5314
H     -0.3952      9.7143      2.2701
H      3.0954      4.2394     -0.0268
H      4.4984      5.4295      4.0529
C     12.3692      7.8582     11.4500
C     15.5423      6.1635     15.9078
H      1.4518      6.3873      9.6837
C     -1.8807      4.5218      4.8769
C      0.4266      7.0010      5.2242
H     16.2536      8.5531     21.4747
H      1.6533      1.5776      4.9861
C      1.2903      5.9042      4.8614
H      2.8386     -0.4633      1.9555
H     16.9686     11.2435     15.8521
H     -0.0766      7.1680      9.0196
C     -5.0760      6.3823      9.0051
C     -8.4375     13.7817      8.5438
C      6.5967      7.8083      3.0412
C     -3.0103     10.3459      5.5597
C     -0.2251      6.4229      2.8754
C     -1.6240      6.5365      3.5894
H      3.4408      6.4119      0.1012
H     -2.3811      3.2855      6.5124
C    -10.8775     13.6268      8.7921
C      0.4583      5.0991      3.5107
C      4.8441      3.5012      2.6469
H      1.5607      4.6326      8.2654
H     -2.8466     12.6563      7.7936
H     -5.4962     10.9369      6.0906
C      2.2753      6.9025      9.0975
C     -1.6837      5.6761      5.9302
C      3.1914      0.4345      2.1821
C      1.0252      4.9093      6.0749
C      2.0984      6.4931      7.5643
C      2.1941      3.9616      0.2779
H     -1.0857      5.6787      1.2252
H      4.1194      2.0703      1.0514
H      1.9761      1.0568     -0.4991
H     -1.0710     10.7090      7.1169
H      5.3837      0.9529      3.4050
C     -0.6083      8.9546      5.1533
C     -4.1925      7.2875      9.7774
H      3.9192      4.9719      1.2560
H     22.2709      9.7033     14.0524
C     -4.3190     11.6016      7.8313
H     10.1308      6.2231      1.2175
H     -3.7919     11.3178      5.0300
H     -6.6903     14.8402      9.0920
C     -0.0942      7.4557      7.6743
C      0.4055      3.8152      5.6289
O      8.6019      5.3558      4.5625
C     -1.6169      8.0323      5.6699
C     -6.5728     14.2604      7.1533
C      5.3839      2.1417      6.6127
C      3.4470      0.5047      5.7413
H      9.2916      6.1451      4.8350
H     -5.6817     14.7977      7.1937
H      5.8438      3.4346      8.3597
H     -4.3421      9.9331      8.3736
H      0.9404     10.1235      6.2522
H     18.6826     12.7457     17.8531
C      1.9395      5.1146      7.2209
H     -0.6134      4.0674      1.6019
C      3.7211      5.3347      4.9217
C     -9.6022     15.8534      9.1361
H     21.6999      8.6319     14.6734
C      8.3554      7.1060     11.0153
H      3.6346      5.7046      8.2234
H     11.3680      6.1103     10.9892
H     -6.5650     13.4083      6.3403
C      3.7552      2.6670      4.5241
C     17.7840      9.7702     18.7062
C     -6.2631     12.5440      8.7209
C     -5.2162      9.6968      7.7782
C      5.5972      4.5062      8.1792
C     -6.9600     13.7793      8.5066
H     -0.3755      4.6654      8.0635
H      0.5832      3.4197      0.0312
H     19.6747      9.4578     12.8189
H      7.4865      5.4128     11.4031
H     -0.8676      2.5112      6.1906
C     14.3683     10.0567     13.8874
H     -9.9239     17.7087      9.6521
H     -2.4321      9.7393      3.0614
264

C     19.6445      8.9543     13.8020
C      3.8890      1.4958      7.0699
C      2.1523      2.9601      1.2467
C      7.1707      4.8833      2.4800
H     -3.3449      3.7801      2.9380
C      7.3343      3.6400      3.1618
C      3.8171      3.8342      5.4378
C     -6.4733      9.6700     10.2266
C     16.0672      7.0616     19.6537
C      5.9997      1.5719      3.6226
C     -7.3964      8.6761      9.3467
C     13.7729      8.7477     13.5158
N     -0.4664      2.7554      6.4769
C      0.6734      6.0714      0.6519
O     -1.4445      2.7987      1.7083
C      3.6680      3.7830      6.7514
C     15.6901      6.0499     17.4520
C     16.2962     10.2321     17.0638
H    -11.7820     13.8872      9.8459
H     -3.4461      3.4203      4.3598
H     16.4190      5.8503     14.6747
H     -6.8430     10.9782     12.0409
C     16.8410      9.1718     16.3796
H     -8.3566      9.0058     10.5466
H     -5.8336      9.6950      9.3803
H      8.0829      2.8655      3.5203
H     12.7930      7.1275     10.5055
H     -1.2048      5.2492      6.6106
C      3.0387      2.6609      7.5871
H     -1.8503      9.5862     -0.8847
H      7.1152      1.3635      3.5679
O     15.0867     10.4598     14.9396
C     -4.7309     12.5462      9.0648
C      6.8273      6.5469      9.7304
H      2.1595      0.8303      5.9158
H      3.1152      6.9625      9.1141
C      6.0082      2.7790      2.6917
H      6.3749      5.2186      7.4698
H     -6.0136      8.6559     10.5950
H     -7.8078     10.3702      8.3083
H     -8.7317      7.3105     11.0300
C     17.4161     10.5996     17.9962
C     -2.8496      8.7178      5.1062
O      1.8627      8.4414      5.1187
C     -1.5041      7.9644      7.1829
C      8.6099      8.1618     12.3404
C     20.4356      7.7724     13.3938
C      6.4324      7.0153     -0.4260
H      5.0384      4.4143      1.5016
H     17.3979     10.4135     14.7788
H     -5.1647      6.9207      7.8259
H     15.5987     11.1575     14.4782
C      7.0785      6.7169     11.0895
C      7.7519      5.7319      3.3420
H     21.7247      8.7225     14.9525
C     -1.0921      6.7543      4.9153
H     15.5179      8.7183     21.2669
H      4.0425     -0.1653      1.9521
H     -7.4682     11.0790     10.1971
H     15.3071      6.8996     13.0748
C     -2.9076     11.4282      7.8756
C      5.6593      5.8577      9.3596
C     15.9064      7.4130     18.0960
C      4.6461      6.0057      0.6076
C     17.6700      9.3338     15.3355
H     -3.4643      7.9008      5.2567
H     -9.5329     14.2771     10.6765
H     -6.2285     12.5659      9.9511
H     17.7300     11.8180     16.3583
C      0.5116      3.7672      8.7970
C     13.5992      8.4271     12.1129
C      1.4916      1.7031      7.5468
C     -0.4969      6.3388      1.4722
H      5.4370      7.3427     -0.8186
H     -1.9449      2.4088      4.4015
H     -8.0008     10.1235     11.6340
C      9.8264      7.5767     12.7950
O     14.8590     10.7744     12.5659
C     -6.4832      8.4231      7.9523
C     16.2970      8.2416     20.6681
C     -9.7942     14.6154      9.5059
C      3.0054      1.2453      4.5471
H     -0.3023      9.9015      0.2742
H     -6.6333     12.6101      6.9659
H     -9.7145     16.5717     10.8034
C      3.6090      3.0687      3.0973
H     -3.9070      9.8791      6.4609
C     -2.1620      8.5181      0.6762
C     10.9901      7.2954     11.3954
C      5.1965      1.9715      5.0757
H      3.6428     -0.4454      5.7520
H     -4.3316     13.4561      9.1574
C    -10.6532     12.4238      8.7497
C     -8.3078     11.1955      7.9347
C     -2.1193      5.1399      3.3419
C     16.6512      9.1987     19.6151
C      2.2522      3.2791      2.6499
C     -8.4114      7.9777     10.1176
H     15.8510      8.3786     14.1346
H     -3.4676      4.9986      1.6404
H      2.1562      3.5413     -0.7641
O      5.3159      6.7469      6.2839
C      0.7020      7.9842      4.4195
C     -2.7075      8.6270      3.7870
C     -1.7990      7.7988      3.0537
H     -7.6741      8.6202      7.9405
C     -2.5646      7.4723      7.9304
H      1.4995      2.6451      5.1191
H     14.1761      8.6125     10.0986
H      6.6400      2.7747      1.4694
H      1.6649      4.0830      8.8698
C      3.1367      1.6933      1.0973
C      0.0579      8.5179      1.9429
C     -0.4583      3.3877      1.5026
C     -0.1354      4.0601      4.1964
C     -5.5625     10.8823      7.3036
H      1.2049      0.3992      4.4740
H     -3.5133      7.2622      7.4452
H     16.2851     10.2233     19.8910
H      0.1422      5.8839     -0.2784
O      0.3760     10.0126      5.7221
C     -6.8592     11.7248      7.9618
C      0.5729      7.0298      6.6133
C     15.0852      7.8380     13.8446
H     15.9596      8.1437     15.6073
C      0.7396      7.6738      3.0001
H     -4.6334     12.2432     10.1265
C      2.6914      0.4075      3.3762
C      0.1906      2.5439      7.7251
C     -1.9892     10.5567      6.7957
C     -2.4156      3.2815      4.7691
C     17.9775     11.8621     17.4328
C     -9.5217     16.9278      9.8212
C      0.6741      2.5497      1.1026
C     -1.3184      7.8140      1.7039
C     -9.1071     12.2727      8.6240
N      1.5410     -0.0816      3.5653
H      4.1647      1.3787     -0.5191
C      3.0679      1.4066     -0.3654
O     16.7430      5.8940     15.6431
C      9.5924      6.4634      0.7395
H     18.6620      9.1247     19.0273
H     -0.4896      1.9726      8.2655
C     -2.8900      4.5605      2.4466
C     -2.7409      7.7241      9.1835
H      0.9607      1.0003      6.8623
H      7.5956      4.9264      0.2527
C     -1.4956      9.5188      0.1332
H      4.6827      6.4870      8.9344
H      1.1008      7.3594      9.2139
H      7.7022      5.3602      5.7870
H     -0.9533     10.1144      4.6303
H     15.5983      8.8898     10.8904
H      1.9994      1.8113     -0.7240
H      0.2999      3.1543      9.9107
C     15.1753      7.4430     15.4121
H      5.1695      5.5794     10.1980
C     14.4650      8.7883     11.1038
C     -7.1356     10.5896     11.1290
H     15.3759     10.2887     17.5666
C      4.2726      8.0123      4.3435
C      7.7560      7.0319      2.8789
C     21.1352      9.5832     14.3528
C     18.9297      8.6755     15.0170
C      4.2744      5.9843      6.2901
C      1.7840      4.7610      2.5161
C      5.9885      6.1634      0.5540
C      5.8318      7.4997      4.1868
C      8.0731      6.6604      1.3525
C      4.4346      4.7444      7.4032
C      1.6357      5.1787      1.1145
H     -3.0703      5.9181      5.8238
C      6.2035      6.7645      5.2384
H      9.7274      5.4393      0.2309
H      0.6846      1.6163      1.5434
C      7.1669      5.4351      1.1035
H     -0.5053      3.4137      3.2803
O      7.3633      6.4417      5.7834
H      9.0253      9.0911     11.8142
H      2.1246      2.9688      3.6585
H     -0.4188      9.4772      2.6967
H      3.2263      4.5255      0.1688
H      4.8588      5.2453      4.2741
C     12.3842      7.8727     11.3530
C     15.5513      5.9960     16.0015
H      1.1733      6.0616      8.9785
C     -1.5729      4.5568      4.5726
C      0.3816      6.8161      5.2446
H     17.2649      7.7421     21.0882
H      2.0777      1.6604      4.7663
C      1.2494      5.6637      4.8046
H      2.5604     -0.0702      1.1807
H     16.5747     10.9843     16.3948
H      0.2450      8.2371      8.8346
C     -5.0373      6.4865      8.8634
C     -8.6567     13.7097      8.5795
C      6.4654      7.6557      2.9672
C     -3.0753     10.0760      5.8370
C     -0.0407      6.1655      2.7819
C     -1.3470      6.4910      3.6147
H      4.2433      7.0679      0.9845
H     -2.4644      2.5226      5.9181
C    -11.2219     14.0174      8.8241
C      0.7983      5.0685      3.5845
C      4.9529      3.7019      2.4610
H      2.2949      4.2958      7.9968
H     -5.8888      7.2996      7.7914
H     -1.9386     12.0383      8.4460
H     -5.5457     11.0721      6.2216
C      2.0186      6.7394      8.8202
C     -1.7661      5.6214      5.6653
C      2.9845      0.5360      2.0214
C      0.8458      4.6802      6.1365
C      1.9429      6.5082      7.3630
C      2.3391      4.1959      0.2701
H     -1.0954      5.4381      1.1417
H      4.0515      2.1255      1.5380
H      2.9845      0.3203     -0.3593
H     -1.3715     11.3886      6.6272
H      5.3391      0.6917      3.4658
C     -0.3622      8.9823      4.8097
C     -4.0807      7.3835      9.6034
H      4.0070      5.4348      1.1178
H     21.7001      9.9757     13.3603
C     -4.1822     11.5993      8.1273
H     10.3814      6.9373      1.6766
H     -3.4851     10.6370      5.0630
H     -7.1409     14.7144      9.5686
C     -0.1696      7.6597      7.7048
C      0.5423      3.3655      5.5037
O      8.6193      5.3423      4.2812
C     -1.4559      8.0523      5.5382
C     -6.5850     14.4375      7.2759
C      5.2315      1.8110      6.4385
C      3.2075      0.6116      5.9681
H      8.9538      6.1760      4.8087
H     -6.4420     15.4914      7.5560
H      5.9829      3.5724      7.9224
H     -4.4162      8.9896      7.8783
H      0.2386      9.8917      6.6098
H     18.3693     12.6852     18.1263
C      1.7956      4.9473      7.1742
H     -0.0412      4.2991      1.2774
C      3.9471      5.2121      4.9948
C     -9.7032     15.9256      8.9055
H     20.5643     10.4133     14.7535
C      8.3065      7.3696     10.9635
H      3.7461      5.3845      8.4129
H     10.6048      6.2479     10.9262
H     -5.5883     14.3715      7.0943
C      3.8688      2.5067      4.3983
C     17.8122      9.6234     18.9029
C     -6.2414     12.6201      8.8657
C     -5.5591      9.2421      7.4340
C      5.8062      4.6284      8.0507
C     -6.8962     14.0198      8.6217
H     -0.1283      4.5885      8.8843
H     -1.8859      8.2614      9.6341
H      0.8036      2.6742     -0.0670
H     19.2841      9.2378     12.6727
H     -0.8575      1.8823      6.0958
C     14.6684     10.0846     13.6738
H    -10.2982     17.7591      9.8665
H     -2.9034      9.5442      3.1237
