261

C     19.5708      8.7521     13.7015
N     10.5392     10.6656     14.6867
C      4.1397      1.7460      7.2220
C      2.1774      2.6771      2.5317
C      7.7030      4.8530      2.2104
C      7.7982      3.5645      2.6152
C      3.3329      4.1486      5.1496
C     16.2702      7.1639     19.4292
C      6.6484      1.9281      3.9688
C      5.5849     -4.6963      8.8656
C     13.5347      8.7434     13.6665
N      0.5353      2.1595      6.0102
C      0.9080      6.4660      0.6970
O     -1.2918      2.7141      1.5601
C      3.2689      4.1677      6.6783
H     13.9602      7.2412     11.8630
C     15.7222      6.1994     17.2785
C     16.2340     10.2490     16.3094
H      1.7335      1.4899      9.9975
H     -2.9544      2.7935      4.9262
H     17.2412      6.6236     14.4655
C     16.8624      9.0717     16.0688
H      4.5421     -5.9422     10.4616
H      4.6641     -2.7715      9.1505
H     -0.9407      5.2798      6.9432
H      7.0091      2.0784      8.7027
C      3.3913      2.8809      7.6530
H      7.6667      1.7760      4.4919
O     13.8832     10.5271     15.4702
C      8.1932     -0.3151      8.5646
C      6.3888      6.1168      9.6667
H      3.6179     -0.2750      6.3901
H      3.6693      5.2308      8.3710
C      6.7083      2.8919      2.9904
H      5.8675      3.2298      7.0357
H      4.0273     -1.1050      9.9077
H      2.9651      7.0795      9.1490
C     16.6773     11.0470     17.4177
C     -2.9883      8.3550      5.0472
O      1.9185      8.3655      4.9231
C     -1.3663      8.2390      7.1608
C      9.1469      7.8733     11.9459
C     20.5510      7.7474     12.9345
C      6.4923      6.9961     -0.7076
H      6.0933      4.5133      2.0455
H      2.3203     -0.9177      5.4197
C      7.9505      2.6962      9.0021
H      1.0693      1.3274      1.3859
C      7.1091      6.4185     10.7864
C      8.2347      5.6678      3.1802
H      8.2519      7.2374      2.0402
C     -1.1100      6.6365      5.1441
H     15.8769      8.7603     20.9669
H     16.0715     10.9243     15.5607
H      3.1422      5.5824      0.6530
C      9.7319     -1.7568      7.4301
C      6.4143      4.8162      9.0767
C     16.0941      7.5373     17.9655
C      4.9290      5.2957     -0.3505
C     17.5492      8.7801     14.9407
H     -3.6047      7.4989      5.3281
H      8.5291      7.5628      3.7005
H      4.2023      1.4074     10.4446
H     18.6074     12.0393     16.5522
C     -0.5302      3.3470      8.3507
H     19.1093     10.2819     14.8136
C     12.6581      8.8122     12.4783
C      1.6851      1.6382      7.7939
H     11.1826      6.5088     10.4117
C     -0.5175      6.3692      1.3677
H      5.7827      7.6237     -1.1918
H     18.8489      8.8631     12.9108
C     10.2933      7.2912     12.7741
O     15.2693     10.4350     13.7110
C      6.8807     -4.2831      8.7153
C     16.5218      8.5995     20.2298
C      3.7544      1.6477      9.3231
C      2.7059      1.1699      5.1494
H     11.0423     10.3347     15.5500
H      5.5543     -1.0743      6.8893
H      2.3468      4.2312      9.1639
C      4.2818      3.7168      3.0786
H     -3.2664      8.3487      7.2477
C     10.9255      8.3827     13.3898
C     11.6374      6.6092     11.6294
H     -2.3472     11.5483      5.5939
C      5.5166      2.3054      4.8103
H     17.5414     13.2205     17.2221
C      2.4602     -0.3422      8.7375
C      4.5334     -1.9466      8.2556
C     -2.1602      4.7571      3.7731
C     16.2552      9.5318     19.1144
C      2.9526      3.8131      2.5386
C      5.1877     -6.0546      9.3466
H      1.9993     -0.9348      9.4780
H     15.6242      7.6625     13.5231
H      9.5615      5.3695      4.4486
O      5.8602      6.5279      6.7534
C      0.6289      7.9506      4.6491
H      4.2729     -2.5503      7.3232
C     -2.6014      8.7691      3.7213
C     -2.2177      7.4960      2.8214
H      7.7499     -4.2962      9.5870
H      8.6427      3.6005      3.2220
C     -2.3632      8.5881      7.9825
H      2.4356      4.0564      4.4971
H     12.2061      9.9859     10.8449
H      3.7747      3.6753      0.1733
H      0.4320      3.9015      7.8970
C      3.3277      1.4124      2.4272
C     -0.0880      8.4892      2.0418
O      4.7807      3.9316      0.1131
O      7.7412      4.0118     11.0263
C     -0.1196      3.0828      1.3994
C      0.5036      3.6545      3.8342
C      7.2116     -2.1677      7.3914
H     15.1892      9.6666     19.2770
H     -0.1790     10.1350      4.4741
H     13.0041      7.6575     10.7213
C      5.9074     -1.4336      7.9281
C      0.7849      7.0978      6.7739
C     14.6288      7.6303     13.9586
H     14.9343      8.8904     15.6041
C      0.5366      7.5267      3.0571
H      8.7873      0.0460      9.3475
C      1.9332      0.2462      4.1614
C      0.4099      2.2233      7.3389
C     -2.4851     10.5350      5.8034
C     -2.5539      3.2552      5.8726
C     17.6586     12.2234     17.3775
C      3.1076      4.0035      9.8870
C      1.1088      2.3135      1.5162
C     -1.2576      7.5949      1.7137
C      3.8658     -0.7322      8.9360
N      1.3843     -0.8296      4.7567
C      3.7528      1.7004      0.9857
O     17.1601      6.3077     15.2095
C      9.4935      6.5174      0.6021
H     18.1328     10.1329     18.8356
C     -2.6141      4.0576      2.7761
C     -2.7025      7.8077      9.0648
H      8.4642      3.2337      8.1885
H      1.8953      0.6306      7.3930
H      8.3520      3.4129     11.0084
H      7.9352     -4.1697      7.0202
C     10.3810      9.6971     13.6084
H      4.3629     -6.0682      8.6527
H      1.5251      7.2886      8.7477
H     -3.4631      4.0563      6.1704
H     -0.3736      9.2576      2.6050
H      4.7944      2.0637      0.8910
H     -0.3421      3.1353      9.3236
C     14.8906      7.6955     15.2987
H      3.9238      0.6506      0.5953
C     12.8635      9.9703     11.6795
H      0.6480     -1.8514      4.6859
C      4.2878      8.1058      4.1292
C      7.8054      7.0506      3.0844
C     20.1943      9.7424     14.4223
C     18.7991      8.2948     14.8802
C      4.2559      5.9487      6.4040
C      2.1741      4.9760      2.3536
C      6.1658      5.6818      0.2278
C      5.6628      7.5220      4.2436
C      8.1847      6.6916      0.7873
H     13.3097     10.7829     12.1834
C      4.2337      4.9982      7.5555
C      1.9062      5.3676      0.9110
H     -2.5142      6.0658      6.5281
C      6.4638      6.9287      5.4006
H      2.3454      2.0627      5.0362
H     -3.1634      4.2248      1.8692
H      1.5915      2.2091      0.5928
C      7.2813      5.4345      1.0444
H     -0.4075      3.2665      3.5480
O      7.6164      7.5085      5.6289
H      9.3439      8.7271     11.2081
H     21.2386      9.5413     14.6445
H      1.4509      2.8153      3.8131
H      1.4856      4.4159     -1.1820
H      8.4714      2.0974      9.6708
H      4.5711      5.9150      4.2292
C     12.7832      7.5987     11.7577
C     15.6830      6.5112     15.5830
H      1.5105      5.9470      9.0555
C     -1.7960      4.3722      5.1122
C      0.4561      6.7300      5.3803
H     17.5337      8.4622     20.8119
H      3.6433      2.0373      4.3460
C      1.2229      5.6867      4.6657
H      2.0563     -0.4471      7.6193
H      2.0466      0.1244      1.8284
H     14.6014     10.5832     16.0931
H      0.1796      7.5503      8.4600
C     -4.8243      7.1659      8.3260
C      4.6266      0.8341      8.3517
C      6.4844      7.5889      3.0970
C     -3.5326      9.7974      5.5461
C     -0.0374      6.1527      2.9922
C     -1.4685      6.1413      3.6630
H      1.8625      3.4516     -0.4330
H      5.3527      5.0039     -1.4306
H     -1.4058      2.9728      6.4325
C      2.1123      1.2001      9.0835
H     -1.5020     10.1017      6.6034
C      0.8111      4.8813      3.1562
C      5.5259      3.7884      2.6251
H     -1.6138      3.1402      7.9722
H      5.9455     -3.6236      6.4600
C      7.4064      3.8112      9.7836
H     10.2194     -0.7602      7.1727
H      7.1029     -1.7862      6.2880
C      2.1355      6.5166      8.6526
C     -1.6012      5.4619      6.0590
C      2.0459      0.6000      2.8566
C      0.9704      4.5895      5.7682
C      2.1335      6.4949      7.0917
C      1.4723      4.3659     -0.0912
H     -1.2924      5.6359      0.7036
H      4.2317      1.4170      2.7797
H     -2.0568      8.0145      9.9341
H      2.8588      1.7959      0.4446
H     -4.5311      7.5732      7.2222
H      6.7477      1.0011      3.8316
C     -0.3668      9.2084      5.3112
C     -4.0136      7.1755      9.3752
H      4.0425      5.5805      0.2074
H     -3.4968      9.6788      3.5123
C      8.5130     -1.3843      7.9220
H     -2.3440      3.1439      3.3193
H     -4.1528     10.1699      4.8202
C     -0.1938      7.8022      7.4761
C      0.3378      3.3746      5.3553
O      8.5572      5.1889      4.3440
C     -1.4806      8.1930      5.7051
C      6.4426      1.2305      6.9815
C      5.3962      2.0192      6.1751
C      3.4907      0.7441      6.1095
H      6.2956      0.0268      9.7797
H     18.4436     12.1147     18.3480
C      1.9173      4.8135      6.9871
H      0.2943      4.3686      1.5283
C      3.7627      5.4313      4.9516
C      3.7770      3.0095      9.0736
H     20.4695     10.3170     13.4219
H      0.7296      6.3100     -0.2929
C      8.5523      6.8549     10.7870
H      2.5353      3.7390     10.7484
H     11.8648      5.6575     11.7393
C      4.2480      2.9565      4.3750
C     17.0462     10.0113     18.3757
C      6.7642     -0.3149      8.8415
C      6.9997     -3.5650      7.2029
C      5.6020      4.2069      7.8022
C      6.0004      0.7822      8.2284
H     -0.9244      3.8794      4.8248
H      9.8488      9.8772     12.5464
H      9.8281      5.7647      1.5409
C     14.2524      9.8322     14.2630
H      3.5770      5.0680     10.1499
H     -1.8757      9.4756      3.8215
