262

C      6.9774      8.4401      1.0026
N     -2.1232     10.7338      1.3374
C      3.7606      1.7728      7.0358
C      2.2474      2.2754      1.7995
C      7.6203      4.7505      2.0363
H     -2.8618      6.7092      2.3504
C      7.5743      3.4654      2.6218
C      3.5378      4.0178      5.0858
C      3.2994      7.0026      6.3337
C      6.2000      1.8558      4.0455
C     -7.3666      8.2554     10.0121
C      0.6373      8.9074      0.7226
N     -0.3805      2.5432      6.4020
C      0.4353      6.1586      0.7281
O     -1.1817      2.4606      0.8039
C      3.2506      4.0103      6.5849
H      0.2961      6.4799     -0.4354
C      2.9482      6.0867      4.2047
C      3.2475     10.2853      3.5732
H      1.0385      1.1267      9.5062
H     -2.8368      2.9522      4.8193
H      4.6771      5.9322      2.5077
C      3.8132      9.1630      3.1254
H     -8.6114      6.7977     10.9244
H     -7.7896      8.7026     10.8964
H     -0.5564      5.6381      6.6919
H     -5.6620      3.1073      8.0229
C      2.8126      2.8713      7.5441
H      6.9054      1.1614      4.3312
O      1.0393     10.6097      2.5095
C     -5.0163     12.4484      8.7062
C     -6.7061      5.8946      9.8052
H      2.1870      0.2992      6.5806
H     -9.4742      5.2409      7.8996
C      6.3578      3.0807      3.2335
H     -7.1895      3.3237      7.4580
H     -8.4393     10.3833      9.2064
H      2.9188      6.0449      8.7283
C      4.4946     10.6211      4.4478
C     -2.8547      8.8897      5.1025
O      2.2335      8.5712      4.7947
C     -1.4376      8.6634      6.9569
C     -4.5267      7.7869     11.7141
C      7.5648      7.3621      0.1443
C     -6.4381      6.7717     12.1795
H      5.2136      3.8378      1.6114
H      4.9801     10.3684      1.3597
H      1.9144     -0.4586      5.6373
H     -4.4743      6.8504      7.4295
H      1.8626     11.3014     -0.0506
C     -5.5042      2.7131      9.0452
H      0.4371      1.2762      1.9352
C     -5.8264      6.3102     10.7856
C      7.8116      5.8633      2.9196
H      7.9476      7.9392      2.1132
C     -1.0996      6.9864      5.1171
H      3.0915      8.5556      8.0356
H      3.5526     -0.8674      2.6391
H      1.8229      7.2077     -0.2828
C     -3.4575     11.5199      7.1123
C     -6.8200      4.7125      8.9387
C      3.3228      7.4968      4.9048
C     -7.8986      4.9441     12.3762
C      4.9105      9.4542      1.9258
H     -3.6123      8.1989      5.0956
H      8.1740      7.4978      3.9917
H      3.5670      1.4089     10.5921
H      5.0875     12.7981      4.3408
C     -0.5502      3.7863      8.3292
H      8.9991      9.4958      1.3614
C      0.1988      8.9716     -0.8052
C      1.4474      2.1020      7.7549
H     -1.5599      8.0656      9.4914
C     -0.5041      6.4181      1.5574
H     -7.1406      7.6898     12.2185
C     -2.6505      7.3942     -0.2606
O      2.5234     10.9621      0.5775
C     -6.6742      8.4751      8.8309
C      3.6614      8.2168      7.1420
C      3.3623      1.7792      9.4219
C      2.9112      1.6603      4.7906
H     -2.6302     11.4955      1.6398
H     -7.3629     11.8609      6.9110
C      3.9446      3.1814      3.2496
C     -2.1464      8.3353      0.7411
C     -1.6669      7.2161     -1.3756
H     -1.9337     11.5097      5.6206
C      5.1529      1.9543      5.0782
C    -10.5172     12.8383      8.8343
C     -8.4455     11.3227      8.5190
C     -2.2410      5.4563      3.8999
C      3.8037      9.6376      6.7032
C      2.6623      3.4030      2.3230
C     -7.8188      6.8433      9.9987
H      2.4290      9.1315      0.3701
H     -3.0482      6.2445      4.1227
H      1.3435      4.8211     -1.4916
O      5.8203      6.5602      6.4387
C      0.8704      8.2019      4.4450
H      4.1994     10.6160      7.3374
C     -2.7521      8.7903      3.5543
C     -2.1776      7.4666      2.8777
H     -6.9393      7.6380      8.1460
H      8.3354      2.7617      2.6749
C     -2.8245      8.5811      7.7247
H      2.5136      3.9821      4.8184
H      0.4290     10.6824     -2.6501
H     -7.9339      3.3699     13.5473
H      0.1716      4.3616      8.8139
C      3.3169      1.1565      1.9587
C     -0.2293      8.5983      1.8573
O     -8.7186      3.8935     13.1968
O     -5.7489      3.8931     10.9820
C     -0.2352      3.0326      1.2735
C      0.0709      3.7161      3.7481
C     -5.8816     10.5413      7.7189
H     -3.1728      9.6190      7.8471
H      2.5778      9.7441      6.3348
H     -0.3026      9.9000      4.3900
H     -0.5041      7.4857     -2.4603
O      0.5742      9.6662      6.2851
C     -6.9736     11.5436      8.0164
C      0.5395      7.2918      6.6712
C      1.9044      8.0206      0.6995
C      0.6953      7.7452      3.0026
H     -4.1669     13.0982      8.7468
C      2.5903      0.3544      4.1349
C     -0.0233      2.5083      7.7707
C     -2.6975     10.8840      6.1002
C     -2.7679      3.7267      5.6179
C      4.9930     11.7498      4.8340
C      2.8308      4.2694      9.8038
C      0.9151      2.0645      1.3135
C     -1.3583      7.7156      1.6624
C     -9.2202     12.4873      8.7705
N      1.7641     -0.5304      4.6486
C      3.9804      0.7270      0.7451
O      3.9312      6.2503      2.0306
C     -3.3050      6.0624     13.0163
H      5.4875      8.9739      5.9152
H     -0.3512      1.4001      8.1429
C     -2.5066      4.6170      2.5257
C     -2.6799      8.2667      9.3941
H     -6.3633      2.0713      9.1495
H      1.2972      1.5439      6.8217
H     -5.3891      3.0311     11.3352
H     -4.8511      9.1437      9.1858
C     -2.4249      9.7184      0.5151
H     -8.4686      6.9797      9.3623
H      1.9324      7.5555      9.2899
H     -0.2341      9.4930      2.4965
H      1.4254     10.2780     -1.2646
H      4.0411     -0.3623      0.6995
H     -0.8035      3.2375      9.2735
C      2.0385      7.5831      2.1789
H      3.7084      1.6723     -0.2369
C      0.6168      9.9105     -1.6943
H      2.3166     10.1941      4.1214
C      4.4398      8.4569      4.2622
C      7.7061      7.3635      3.0264
C      7.9938      9.6113      0.9985
C      5.7567      8.3799      1.6990
C      4.4984      5.9759      6.1097
C      2.0136      4.8564      2.0295
C     -6.4841      5.3897     12.7137
C      5.6088      7.6654      4.1266
C     -4.6317      6.2917     13.5217
C     -8.5566      4.9268      7.2666
C      1.3406      5.0103      0.7488
H     -2.4805      6.2961      6.5633
C      6.3486      6.9545      5.2459
H     -1.1749      2.2644      5.7605
H     -3.4504      4.9556      2.2102
H      0.9084      1.6128      0.1830
C     -5.4137      5.0868     13.6542
H     -1.0150      3.3353      3.4817
O      7.4738      7.7903      5.7145
H      8.0981      9.9852     -0.0027
H     -0.0953      3.2863      2.6050
H     -1.7451     10.2304      2.2630
H      2.6687      5.5636     -0.8614
H      5.0181      5.5961      3.9735
C     -0.5711      7.9011     -1.4566
C      2.7064      6.2613      2.5878
H      1.1350      5.6128      8.8269
C     -2.0636      4.6274      5.2945
C      0.2998      6.8074      5.2714
H      4.7676      7.8765      7.2654
H      2.1753      2.3456      5.1134
C      1.2362      5.6511      4.5308
H    -11.2483     12.0719      8.7622
H      1.9532     -0.4017      2.1734
H      2.9266     10.9620      2.7970
H     -0.2377      7.9763      8.6132
C     -4.3389      6.3365      8.4232
C      4.2413      1.1206      8.4935
C      6.2449      7.4967      3.0153
C     -3.4987      9.9840      5.5937
C      0.0055      6.3339      2.8979
C     -1.2726      6.5557      3.7244
H      2.2393      3.6342     -0.1927
H     -8.3566      5.1167     11.2395
H     -2.2314      3.1395      6.7142
C      1.8639      1.4331      9.0433
H     -0.5874      9.4678      7.0057
C      0.7296      4.9588      3.1074
C      5.2532      3.4149      2.5767
H      1.3198      4.4385      7.5575
H     -4.9581      8.8181      7.4512
C     -5.8843      3.8484      9.7287
H     -2.8092     12.3726      7.7313
H     -6.2271     10.2371      6.6463
C      2.0188      6.4631      8.6235
C     -1.5776      5.9877      6.1200
C      2.9995      0.0608      2.7594
C      1.0529      4.7251      5.5796
C      1.9444      6.5393      7.1791
C      2.0076      4.8623     -0.4657
H     -1.5630      4.6751      1.8534
H      4.0351      1.5155      2.6992
H     -3.0594      9.2049      9.9162
H      5.1285      0.9323      1.3880
H     -5.0896      5.9200      8.8007
H      5.4375      1.2911      3.2713
C     -0.3264      9.0842      5.0002
C     -3.8477      7.2199      9.4310
H     -8.4324      6.1309     12.6117
H     -3.5977      9.1338      3.0407
C     -4.6485     11.4293      7.7709
H     -2.5309      3.4683      2.5838
H     -4.4371      9.7090      6.0204
C     -0.3784      7.6902      7.5272
C      0.4704      3.4839      5.4213
O      7.9662      5.2007      4.1709
C     -1.4798      8.6772      5.5717
C      6.1083      1.2635      7.1431
C      5.1730      1.9954      6.4319
C      3.0668      0.7241      6.0851
H      8.0966      7.1260      6.2191
H      7.0607      0.7822      6.8976
H      4.5098      3.2885      8.2341
H      0.5312      8.6518      6.5906
H      5.5320     11.1537      5.5635
C      1.8450      5.0066      6.7371
C      4.2557      5.3084      4.8367
C      3.5510      3.1888      8.9652
H      7.5332     10.4167      1.6787
C     -4.5421      6.8134     10.5858
H      3.0671      3.8137     10.8048
H     -2.1099      6.8203     -2.3103
C      3.9353      2.7185      4.6729
C      4.6186      9.5048      5.4014
C     -6.4090     12.6375      8.8073
C     -5.4496      9.1248      8.3256
C     -7.5746      4.2812      7.9526
C      5.7804      0.8072      8.4231
H     -1.5065      4.1259      8.6776
H     -3.1019      9.5548     -0.5770
H     -2.6660      5.3470     13.3408
C      1.1119     10.2111      1.3916
H      3.2735      5.3593     10.1164
H     -2.1092      9.5848      3.5377
