272

C     32.3283     -3.6832     13.8589
C      4.2281      1.2631      6.9555
C      3.0159      2.9137      1.0346
C      7.1975      5.1531      2.5463
H      9.4071     -9.4985      2.3857
C      7.5713      3.7095      2.8134
C     16.0107     -8.9605      5.4139
C     19.4322     -3.2138     11.0129
C     28.7474     -6.0903     19.6713
C      5.9899      1.8938      4.1785
C     19.0801     -4.5071     10.0388
C     26.8013     -4.0379     13.5873
N     -0.2342      3.2045      6.3726
C      0.8783      6.1294      0.2392
O     11.3555    -10.5695      2.6407
C     15.9628     -9.0076      6.9360
H      0.1113      6.3780     -0.8711
C     28.5454     -6.8160     17.2813
C     29.3488     -2.4673     16.7971
H      1.7769     -0.0125      9.9990
H     10.6730    -10.3650      5.6378
H      6.1060      4.7662      2.7640
H     20.3866     -1.9707      9.6558
C     29.6777     -3.7830     16.2045
H     27.8595     -1.3732     12.6424
H     20.2660     -3.3882     11.5047
H      8.3857      3.8337      3.6300
H     25.3332     -5.6408     10.7041
H     11.6833     -8.2519      6.6238
C      2.9161      2.2868      7.3311
H     -4.0956      9.5669      1.7904
H      7.0361      1.9217      4.5739
O     27.8788     -2.3739     14.8699
C      8.7037      0.5115      8.0099
C     19.4132     -6.8253      9.9890
H      2.2923      5.6135      9.2240
C      6.3370      2.7155      2.9645
H     19.4804     -7.3036      7.5724
H     18.7097     -2.8552     11.7592
H      5.4321     -1.9435      6.8866
H     16.8747     -4.8949     10.2876
C     30.2680     -2.2763     17.9828
C     10.1672     -4.7675      4.7639
O      1.9289      8.3532      4.8387
C     -1.8457      7.3322      6.9999
C     21.4514     -4.7905     12.2155
C     33.2415     -4.8917     13.1255
C     19.0991     -5.5493     12.5001
H      4.9737      4.1353      1.6763
H     30.9734     -2.6451     14.7639
H      1.1730     -0.2211      2.9270
H     -4.5025      4.9737      9.8554
H     28.2516     -2.8096     17.2391
C     19.4514     -5.9044     11.0643
C      8.0802      5.9192      3.1936
H     33.3431     -1.5339     13.1644
C     11.8402     -6.5503      4.9860
H      4.2496      0.1908      2.4641
H     18.4191     -1.9399      9.8147
H     29.4344     -7.6590     14.5745
C     10.3283     -1.3522      7.4916
C     18.0673     -6.9973      9.3025
C     28.7712     -5.5757     18.0067
C     17.5827     -7.2357     13.0776
C     30.5621     -3.6082     15.2094
H      9.0802     -5.3904      4.8288
H      8.4666      8.3710      2.8997
H      3.8552      1.8382     10.4608
H      6.9260     -0.4646      9.2056
H     32.0648     -0.7887     18.0029
C     -0.2342      2.6485      8.7535
C     26.3331     -4.3733     12.0538
C      1.5009      1.5766      7.0390
C     -0.3182      6.4803      1.2123
H     18.1558     -4.9870     12.5661
H      9.5390     -9.2480      5.2402
H      5.3969      4.7410      5.5932
H     19.2662     -1.1940     10.8040
C     22.7964     -5.1016     12.8957
O     27.5990     -2.2041     12.4068
C     19.5676     -4.3886      8.5527
C     28.8327     -4.8649     20.4400
C      3.5907      1.3734      9.5209
C      3.2890      1.4680      4.6980
H     -2.5446     10.5314      2.1323
H     16.8623     -6.1613     13.3129
C      3.7840      3.3817      3.2086
H      8.4775     -3.5358      5.7723
C     -2.1169      8.8001      0.7092
C     23.8049     -5.5346     11.6157
H      0.5951     10.6010      5.9142
C      5.4446      2.7371      5.1728
H     30.8028     -0.7109     16.8440
H      7.9701      3.3037      1.9561
H      8.5821      1.3130      7.1120
C      2.9908     -0.4105      8.2746
C      5.4752     -1.0659      7.3651
C     11.0659     -8.0950      3.1428
C     28.8533     -3.5193     19.5930
C      2.7298      3.6261      2.3406
C     17.4421     -4.0790      9.7460
H      2.3573     -1.2172      7.6446
H     29.2834     -4.4942     13.9361
H      9.8185     -7.5912      1.4349
H     26.1145     -3.5474     11.4052
H      2.1179      3.8586     -0.9832
O      5.0231      7.0766      6.4127
C      0.7394      7.8857      4.5573
H     29.2957     -2.9221     20.3960
C     10.5931     -4.5717      3.4497
C     10.9450     -5.5124      2.6498
H     19.0184     -3.6211      8.0922
C     -3.1229      6.9262      7.4990
H      1.2268      2.1255      5.0527
H     28.5139     -4.9275     11.5683
H      6.3820      1.8039      2.1303
H     -1.1295      3.2915      8.7888
C      3.6663      1.3599      0.9868
C     -0.1480      8.8299      1.9530
C     11.4544     -9.8958      1.4339
C      0.1314      3.7407      3.6977
C      7.7581     -1.4392      7.0796
H      1.6989      0.0762      4.5300
H     -3.9324      6.8134      6.7299
H     27.8100     -3.3738     19.3631
H     27.6777     -5.9089     13.1494
O      0.3718      9.4718      6.3527
C      6.7785     -0.6171      7.5484
C      0.3618      6.8082      6.7038
C     28.1118     -4.9715     13.9442
H     28.7329     -4.7027     16.0354
C      0.6781      7.8762      3.0581
H      9.0963      0.3990      8.9517
C      2.5629      1.0277      3.3827
C      0.3789      2.4996      7.2446
C     10.2594     -2.7455      6.7543
C     10.2155     -9.9007      4.8967
C     31.2096     -1.5231     17.4588
C      3.3170      3.7493      9.4006
C     12.8585     -9.6718      0.9962
C     -1.3006      7.9112      1.3594
C      4.4245     -0.6087      8.1804
N      1.7499      0.0798      3.6148
H      3.3338     -0.3970     -0.2315
C      3.2577      0.6800     -0.1591
O     29.7541     -6.9837     15.2408
C      9.3577      6.6878      0.8314
H     30.9620     -3.5948     19.4736
H      1.3837      0.6569      7.6224
C     10.3458     -8.5955      2.0234
C     -2.9914      6.8730      9.0637
H      1.6463      1.5773      6.0068
H      7.4511      5.0011      0.5949
H     21.2520     -3.9940      7.1675
C     -2.8618      9.7055      1.5010
H     17.2686     -4.1590      8.8177
H      1.1156      7.1689      9.2871
H     10.2902     -7.5376      6.0931
H     -0.5487      9.9021      4.6153
H     27.2489     -4.9942     10.3867
H      3.6411      1.1986     -1.1280
H      0.6404      3.2867      9.0983
C     28.0169     -5.3915     15.3765
H     18.0007     -5.7753      9.1994
C     27.6412     -4.6467     11.2964
C     19.4208     -2.0948     10.2218
H      3.2244      3.4415     10.4330
H     29.5670     -1.7020     16.0085
C      4.4244      8.3475      4.4150
C      7.8707      7.3584      2.6996
C     32.9218     -2.1819     14.0887
C     31.8192     -4.1303     15.2499
C      4.0500      5.9598      6.3163
C      1.7909      4.9096      2.2668
C     18.8087     -6.7077     13.2211
C      5.4205      7.0348      4.2924
C      7.8794      7.0148      1.2477
C     17.0705     -8.0785      7.4178
C      1.7066      4.9652      0.4722
H      7.6085      7.6436      5.0901
C      5.9151      7.4842      5.6985
H      9.2123      5.7824      0.3132
H     13.8649    -10.1000      0.5894
C      7.2014      5.7126      1.2900
H      0.2469      3.1211      2.8372
O      7.2332      7.6860      6.1157
H     21.7627     -3.8186     11.8328
H      1.9615      2.9279      3.1472
H     -0.5901      9.6417      2.3420
H      4.8239      5.2659      4.5419
C     25.0538     -5.1809     11.5876
H     -4.9089      5.6862      8.2605
C     28.5349     -6.6599     15.8052
H      0.5937      5.5022      9.0058
C     11.0835     -8.8384      4.3297
C     13.4196     -6.3267      5.2579
H     17.5724     -3.0700      9.9036
H      3.6738     -0.3252      5.6133
C     14.2406     -7.2858      4.6073
H      2.6922      0.0519      1.7133
H     -0.7580      6.3722      8.5607
C     -5.1256      5.8838      9.3558
C      4.7810      0.8277      8.7918
O      6.1165      4.1296      5.4053
C      6.3377      7.4549      2.9628
C      9.5202     -3.3344      5.6260
C      0.1022      6.3848      2.6635
C     11.6312     -6.5610      3.3651
H     29.6874     -5.0450     20.8275
H     27.8652     -3.5132     11.0127
H      9.5849    -10.5089      4.2429
C      2.4602      0.2497      9.3253
C      0.8342      5.1352      3.1441
C      4.9565      3.6929      2.6809
H      0.5897      4.3896      7.6469
H     21.6098     -4.9379      8.3742
H     11.3376     -1.1289      7.3143
H      7.6805     -2.1766      6.5174
C      1.4582      6.2311      8.7414
C     11.1627     -7.9615      5.6298
C      3.3691      0.6769      2.1848
C     14.5102     -8.5817      5.4342
C      1.6015      6.1365      7.2707
C      2.5232      3.6587     -0.0047
H     -1.4631      5.8132      1.2617
H      4.8611      1.3486      1.2020
H      2.2868      0.6605     -0.1440
H     12.1791    -11.0059      2.8662
H     10.0624     -3.5239      7.5055
H      5.1906      1.2090      4.0213
C     -0.4056      8.8831      5.1277
C     -4.2399      6.9516      9.7959
H      5.6920      6.8737      2.4727
H     32.1007     -1.4987     14.5275
C      8.9919     -0.7038      7.2754
H      9.9999      6.8164      1.5431
H      9.1222     -2.7611      4.7309
H      6.2847      1.7368      9.3991
C     -0.6131      7.0976      7.5710
C      0.6016      3.3322      5.0258
O      8.9934      5.6568      4.3516
C     -1.5519      7.7414      5.5818
C      6.3165      2.2979      7.4817
C      5.3718      2.0071      6.5064
C      3.5784      0.6460      5.7300
H     19.5390     -5.3855      8.0923
H     18.1113     -8.6814      8.7229
H     21.4079     -3.1450      8.7962
H     11.1341     -3.2280      6.9270
C      1.6062      4.6498      6.9208
H     11.0802    -10.6572      0.6839
C      3.7364      5.2802      5.0373
C      2.9865      2.5633      8.7639
H     33.9068     -2.0497     14.9181
C     21.0706     -5.5235     10.9379
H     16.6677     -8.0088      8.7540
H     23.3354     -6.3434     10.8007
H      6.5574      3.4069      7.7769
C      3.7879      2.7887      4.5787
C     30.1715     -3.5422     18.6840
C      7.1965      0.2990      8.5745
C     20.9420     -3.9788      8.1402
C     18.4341     -7.9202      8.0072
C      6.1575      1.2719      8.4898
H     -0.2162      1.8002      9.2528
H     -2.4051      7.8232      9.4013
H     12.8184     -9.1446      1.8380
H     31.6275     -3.2865     13.1427
H     12.8186     -8.7394      0.3531
C     27.6042     -2.8199     13.8314
H      2.4546      4.1920      8.9338
H     10.2773     -3.5960      3.0077
