289

C      6.7838     -4.0610     13.7654
N     -1.8493     10.8879      0.9587
C      3.8805      1.4258      7.3084
C      2.2388      2.4447     15.3163
H      1.2155      1.1443     10.1914
C      7.9908      5.0618     15.2878
H      9.8677      6.4327     15.0476
C      7.7280      3.7696     15.7826
C      3.2242      4.2448      5.6092
C      6.3177     -3.2659     11.4666
C      3.0661      7.2317      6.7299
C      6.1706      2.0323      4.2274
C      6.4669      9.3089      8.7368
C      0.7468      8.7195      0.8062
C     -4.0439     12.1833     -0.2027
C     -4.9807     13.7114      1.1514
N      0.3676      2.4483      6.1902
H      7.0257     -4.0464     11.3772
C      1.2536      6.2347      0.7246
O     -0.6607      3.2425     13.5055
C      3.0877      4.1556      7.2079
H      0.1068      7.9214     -2.2481
C      3.0134      6.3887      4.4439
C      3.3656     -2.1187     16.1903
H     10.7519      2.8517      6.2502
C      3.5950     -3.6425     16.1693
H      5.5152      7.3752      8.6937
H      6.0608     -2.3361     10.8277
H      6.2489      3.5270      5.4196
H      3.8018      6.0759      8.5094
H     12.1152      4.9026      6.5418
C      3.5390      2.8778      7.8396
H     -3.3263     11.8310     -2.4718
H      6.6035      0.8631      4.3683
C      7.8105     12.0467      9.2322
C     -3.3833     11.3728     -1.3941
C      6.5083      6.0207     10.1730
H      2.1979     -0.1814      9.3546
H      2.1781      5.6688      9.4220
C      6.5436      3.3505     16.6756
H      5.0805      4.2332      9.3882
H      4.1445     -1.4800      9.5317
H      2.9918      7.2763      9.2308
C      4.1593     -1.8172     17.3169
C     10.0536      8.6736      4.8778
O      1.8187      8.6321      5.1026
C     11.4644      8.2912      7.0251
C      8.8410      8.1991     12.2778
C      7.4484     -5.0281     13.0117
C      6.5896      6.7362     12.3623
H      5.5928      4.0768     14.9335
H      6.0878      3.5831     12.3931
H      4.5883     -2.5796     14.8785
H      1.8435     -1.4855     18.0090
H      7.9489      6.7457      8.8435
C      7.7270      2.9553      8.6272
H      0.5631      1.4352     14.4821
C      7.2144      5.9152     11.3212
C      8.4515      5.9898     16.2402
H      8.0180      8.4193     15.6713
C     11.7923      6.6468      5.1499
H      3.5664      8.4765      8.7660
H      3.1888     -1.4562     15.1772
H      4.2961      6.1716      2.8585
H      4.1256      4.7289      9.9233
H      3.0955      5.4620      0.8361
C      9.4160     11.5704      7.4903
C      6.8740      5.0655      9.0637
C      3.0859      7.7230      5.0725
C     -3.7255     14.3056      1.1183
C      5.6061      4.3816     12.7840
C      4.4123     -3.5768     15.0206
H      9.1237      8.4111      5.6430
H      9.2382      8.3539      2.8393
H      3.7500      0.7088     10.6044
H      7.2327      9.3230      9.5285
H      5.2807     -0.1058     18.8124
C     -0.1927      2.9769      8.3868
H      7.1630     -2.1692     14.3061
C      0.5462      8.4625     -0.6205
C      1.9600      2.3967      8.3478
H     -2.3974      6.9277     -2.0149
H     -1.7184      9.7675     -1.9701
C     -0.4306      6.4347      1.1594
H      5.6090      6.2728     11.7315
H     11.2474      2.1350      4.6897
H      8.9280      7.7171      7.2214
C     10.1530      7.4480     12.7806
O      2.5043     10.4757      0.8670
C      7.0135      8.4462      7.6674
C      3.5801      8.5969      7.4143
C      3.5125      1.3310      9.6472
C      3.5705      0.6053     17.6380
H      8.4464     -2.8524     12.9937
H      6.9923      0.4211      6.9034
H     10.3325      5.6538      6.1942
H      4.5964      6.7455     10.4428
C      4.2139      3.6586     16.4416
C     -2.1805      8.4973      0.6884
C     -1.6413      7.0383     -1.0623
H      8.2044      2.0474      9.0235
C      5.5310      2.5628      5.4126
H      2.1598     -2.0237      8.5935
H      5.4963     -0.4202     16.9591
C      2.2996     -0.9507      8.6361
C      4.3778     11.0354      7.2567
C     10.9636      4.7584      3.7313
C      3.4640      9.8704      6.7063
C      2.7964      3.4823     15.8273
C      5.4898      7.0276      9.8444
H      1.7640     -0.4738      7.7408
H      2.5847      7.4846      0.3963
H      0.7101     11.9331      1.2931
H      8.4961      6.5395     18.0451
H     -2.7648     12.4513     -0.1712
H      2.2524      2.9777      0.3416
O      5.5830      6.7525      6.5071
C      0.7106      7.8333      4.6043
H      4.6621     11.5952      6.5747
C     10.2018      8.4063      3.4475
C     10.6630      7.0749      2.8356
H      8.5139     10.0855      8.4784
H      8.6173      3.3069     16.4754
C     10.6404      8.6517      7.9382
H     -3.8475     15.1994      1.8023
H      1.5180      2.4644      4.8147
H     -1.0465     11.1926     -1.3643
H      4.1938      5.1783     12.1989
C      2.8408      0.9993     14.7531
C     -0.0684      8.6446      2.0375
O      4.8959      4.8888     11.6250
O      7.8160      3.6382     10.9751
C     -0.0069      3.2929     14.5276
C      0.0590      3.7866      4.1364
C      6.9305     10.7537      7.0266
H     -3.9432     10.4723     -1.3636
H      2.4753     10.6204      6.5971
H     -0.8530      9.3969      3.8683
H     11.7446      8.3209     10.0147
O     -0.4923     10.0083      5.6552
C      5.9114     10.7838      7.9918
C     13.7233      7.1165      6.9412
C      1.8783      7.6020      1.1154
H      2.6419     -4.3568     15.5716
C      0.7185      7.6988      3.1490
C      2.4265     -0.0738     17.0684
C      0.7042      2.6186      7.4945
C      9.9838     11.0477      6.3656
C     10.7887      2.9125      5.1050
C      4.7652     -0.3605     17.7041
C      3.5338      3.7925     10.0892
C      0.8382      2.2365     15.1799
C     -1.2621      7.7154      1.6559
C      3.6261     -0.9367      8.4058
N      1.5270     -0.5563     18.0738
C      2.3444      0.8535     13.5175
O      5.0252      6.2512     14.0490
C      9.6047      6.5298     13.6950
H      5.2239      9.7243      5.9863
C     10.5367      3.8484      2.6472
C     10.9185      8.0491      9.2734
H      8.3810      3.3747      7.6802
H      2.2409      0.5560      6.5462
H      8.1411      9.0466      6.1452
C     -1.9089     10.0098      0.0496
H      5.8775      8.0266     10.1734
H      1.2505      7.4024      9.4160
H     -0.0750      9.6110      2.1207
H      2.1412      8.9489     -2.4072
H      1.8638     -0.2418     13.5389
H      0.2905      3.2287      9.3951
C      2.0749      7.5054      2.5477
H      1.4761      1.5874     13.5762
C      1.5190      8.9308     -1.4372
C      6.1016     -3.0124     12.7914
H      8.1666      6.2798     10.9182
C     -1.9933     10.5565     -1.3161
H      0.8892     -0.3035     18.6893
C      4.2370      8.5930      4.5468
C      7.8335      7.3341     15.6359
C      7.8467     -3.0200     14.0634
C      5.7147     -4.2349     14.7493
C      4.2589      6.3709      6.5854
C      2.2511      4.8591      2.5876
C      6.2538      5.6585     13.4606
C      5.3378      7.6741      4.1673
C      8.1680      7.0089     14.1721
H      2.3162      9.5592     -1.0353
C      4.3304      5.3775      7.8630
O      0.2908     11.1383      0.9390
C      2.2097      5.0018      1.0554
H      9.8321      9.2311      7.8241
C      6.1669      7.2300      5.3757
H     -2.9380     14.7343      0.6539
H     10.3994      4.6480      1.7647
C      7.4527      5.7355     14.2394
H     -0.2119      2.9312      3.4177
O      7.4098      7.0156      5.2585
H      7.8483      8.2896     10.6986
H     -2.7763      8.7484      1.4978
H      0.9541      3.7469     -0.3919
H      4.9133      5.3798      5.0650
C     -0.3139      7.6087     -1.3108
H      5.7491      3.6341      7.6443
C      3.0710      6.3099      3.0260
C     11.4588      4.1691      4.8909
C     13.4570      6.6821      5.4904
H      5.6207      9.1342      9.2530
H      2.6104      2.0940      5.8348
C      1.4863      5.7994      4.6806
H      0.9882      0.1666     15.5879
H     11.6372      6.8868      8.9914
C      7.8096      7.2586      7.7580
C      4.1041      0.4803      8.5412
C      6.2481      7.7913      2.8807
C      9.9099     10.2787      4.9302
C      0.0522      6.2489      2.8354
C     11.6531      6.2525      3.6694
H      9.9563     12.3889      7.7543
H      2.4055      4.4852     -0.7746
H      3.6400     -3.9754     14.1916
H      4.8573      4.0240     13.4272
H      9.7773      2.9050      4.5153
C      2.0643      1.6692      9.4923
H     11.2189     11.1508      6.6318
C      1.0329      5.1630      3.3832
C      5.3303      4.0739     16.0448
H      0.9016      4.8661      7.9953
H      4.8413      8.5999      7.0316
C      7.4005      3.8373      9.6176
H     -1.7031     11.9718      0.5940
H      6.5534     11.6322      6.6784
C      1.9751      6.6520      9.0192
C     11.4572      5.3795      5.8654
C      2.0297      0.3337     15.8583
C      1.8163      4.5193      5.6012
C      2.0217      6.5770      7.4708
C      1.9616      4.0258      0.0522
H     -1.2910      5.8305      0.7409
H      3.8725      0.4138     14.8404
H      8.9327      8.1632      8.9443
H      2.8365      0.6295     12.6289
H      7.3099      6.3710      7.4064
H      7.0318      2.1461      7.9949
H     10.7483     10.8503      4.4099
C     -5.2156     12.7488      0.1845
H      5.3167      1.6893      3.7436
C     -0.4930      8.9334      4.7165
C      9.5521      7.9628      9.7871
H      8.7016     -3.2699     14.6624
C      8.2446     11.1488      7.9553
H     10.1564      2.8599      3.0711
H      8.8848     10.6844      4.3671
C     12.7723      7.7318      7.6073
C      1.0229      3.3648      5.2699
O      8.9912      5.7454     17.4060
C     -1.5456      8.1040      5.4024
C      6.2450      1.1212      7.4499
C      5.3646      1.7223      6.7141
C      3.0707      1.1655      6.1581
H      5.4972      2.9110      9.4310
H      8.1831     11.1908     10.1092
H     -0.7603      9.5080      6.5264
H      3.8493      1.3169     16.7562
H     12.9802      8.4230      8.3699
C      1.9365      5.0714      7.1569
H     -0.2314      4.2955     14.8950
C      3.9648      5.6544      5.2542
C      4.1518      2.6507      9.3861
H     -6.1600     12.8784     -0.1326
H      1.3499      6.5977     -0.5921
C      8.7757      7.9291     10.8635
H      2.8859      3.5651     10.9847
H      7.8371      5.4132      8.6878
H     -1.4872      5.8826     -0.8261
C      4.1792      3.1857      4.8723
C      4.2935      9.6565      5.4804
C      6.3450     11.9611      8.9466
C      7.3829      9.4232      6.7019
C      5.5230      4.5471      8.5607
C      5.6702      0.1470      8.3981
H     -0.7956      3.6101      7.8547
H      5.6328     -1.9918     13.0590
H      5.7786     11.7189     10.0783
H      9.3776      5.7073     13.1365
H      0.7636      1.7481     16.3170
C      1.3143     10.1793      0.8783
H      2.8419      4.0692      9.5057
H     11.0454      9.1009      3.2286
