284

C     -6.2516     -3.7866      0.8176
N     -1.5956     10.6940      0.8887
C     16.8596      1.3970      7.3957
C    -10.6615      2.4482      2.5251
H     14.6200      1.7136     10.0503
C     -5.0063      4.9354      2.2633
C     -4.9529      3.4103      2.7068
C     16.2375      3.9997      5.6109
C     -6.8931     -2.8910     -1.5461
C      3.5400      7.1795      6.7456
C     19.1149      1.8145      4.3707
C      6.4692      9.4851      8.6086
C      0.9509      8.7650      0.7532
C     -3.7964     12.3692     -0.2633
C     -4.8050     14.0699      0.8432
N     13.4345      2.4711      5.9590
H     -7.7087     -3.6225     -1.2394
C      0.8379      6.3192      0.9239
O    -14.2825      3.1677      1.0781
C     16.4016      4.0364      7.1225
H     -0.2472      7.8755     -2.5407
H     -5.6521      3.1362      1.8707
C      2.9039      6.2520      4.6688
C     -9.3052     -2.3874      3.4683
H     -3.1957      3.2957      5.2614
H     17.1215      6.4333     13.1224
C     -9.1189     -3.7814      3.2143
H     18.6792      7.7481      9.8987
H     -6.2431     -1.7801     -1.7396
H     18.9510      3.1282      5.8169
H     16.6829      5.4229      8.7036
H     -0.1600      5.4795      6.3403
C     16.3060      2.5685      7.9834
H     -3.2925     12.2062     -2.1952
H     20.0744      1.4756      4.8033
C      7.9936     12.4329      8.5796
C     -3.6660     11.4096     -1.4936
C     19.6531      5.8399      9.8634
H      1.9064     12.9111      9.0968
H     14.6260      5.3133      9.4280
C     -6.1604      2.9003      3.0922
H     18.2028      3.5022      8.0444
H      4.1682     11.1218      9.3640
H     16.1800      6.7458      9.2296
C     -8.9718     -2.0437      4.7935
C     10.1318      8.3421      5.2223
O      1.9505      8.8358      5.1315
C     11.4598      7.9676      7.1075
C     -4.3653      8.0818     -0.7150
C     -5.4540      7.6863      0.0232
C     19.5258      6.5267     12.2571
H     -7.9881      3.6461      1.4460
H     18.9787      3.6196     12.1644
H     -8.0912     -3.2222      1.4988
H    -11.6103     -0.9001      6.2134
C     21.3807      2.7505      8.6930
H    -12.3634      1.3369      2.0003
C     20.0194      5.5431     11.1164
C     -4.6768      5.9360      3.2022
H     -4.7848      8.2500      2.4490
H     -5.7717     14.6347      0.9670
C     -0.9649      6.8653      5.3180
H      3.7499      7.9611      8.7108
H     -8.9335     -1.4847      2.9376
H      3.9315      6.3302      2.4656
H     16.7097      3.8683     11.0186
H      2.7804      5.5173      0.7933
C      9.7161     11.5334      6.9782
C     19.8041      4.8910      8.7026
C      3.2187      7.4780      5.4042
C     -3.6593     14.7921      1.1331
C     18.3655      4.4354     12.5203
C     -8.6164     -4.1285      1.8948
H      9.2654      7.6923      5.4716
H      8.7353      8.4427      3.5232
H     17.0554      0.5387     10.5445
H      6.7587      9.1848      9.7188
H     17.6606      0.4007      6.0736
C     12.7565      3.5468      8.1191
H     -4.7438     -3.0165      2.5194
C      0.6293      8.4944     -0.8395
C     14.9142      2.2880      8.2916
H     -1.6814      6.4399     -1.7752
H     -2.4433      9.6874     -2.1055
C     -0.5023      6.5487      1.6703
H     18.5424      6.9295     11.9319
H     -1.6992      2.4497      6.1093
H      9.0053      7.5496      7.6282
C     -3.0049      7.4626     -0.1405
O      3.0112     10.2316      0.4944
C      7.1422      8.7696      7.6451
C      4.2149      8.0763      7.6822
C     16.5212      1.1043      9.7142
C     -9.8683      0.3523      5.1161
H     -5.8383     -2.1348      1.3796
H     19.9006      0.6247      6.5996
H     -1.8697      5.4529      6.8859
H     17.8687      6.4692      8.7194
C     -8.7192      3.3817      3.3850
C     -2.3756      8.5706      0.9599
C     -1.6071      6.8237     -0.9002
H     21.4426      1.8934      9.6586
C     18.3147      2.4218      5.5341
H      1.9372     11.1870      9.7681
H     -8.2138     -0.1834      3.9749
C      2.2233     11.8231      8.8272
C      4.4963     11.0123      7.6005
C     -1.9019      5.2129      3.7419
C      3.9421      9.7834      7.0761
C    -10.1196      3.7112      3.0110
C     18.4318      6.7137      9.5195
H      1.4518     11.8318      7.9067
H      2.8396      7.2489      0.7982
H     -2.7434      5.9142      4.5298
H     -2.8284     12.4749      0.2755
H      3.2409      3.8849      0.3436
O     18.7607      6.6660      6.4020
C      0.7456      8.1550      4.8218
C      9.9667      8.3409      3.6677
C     10.6605      7.3684      2.9073
H      8.6000     10.0536      8.3108
H     -3.9411      3.5633      2.7754
C     10.2827      8.2944      7.9387
H     -4.2422     15.5209      1.7117
H     14.5107      2.6049      4.1849
H     -1.7036     10.8546     -1.4702
H     18.3471      4.6107     10.6710
C     -9.8876      1.0085      2.4475
C      0.0998      8.9123      2.1546
O     17.7798      4.9624     11.4637
O     20.0039      3.2335     10.4321
C    -13.0376      3.3211      1.5669
C      0.0674      4.2592      4.1551
C      6.9090     10.8887      6.7456
H     -4.5228     10.7327     -1.8010
H      2.8258      9.8769      6.8699
H     11.9615      9.2222      4.1240
H     -1.1700      8.8759     -1.6054
O     13.1584     10.2288      5.6986
C      5.9660     10.8926      8.0393
C     13.5663      6.6415      6.8186
C      1.7383      7.5492      1.2113
H    -10.3306     -4.1862      2.8987
C      0.7865      7.7887      3.3899
H      8.2878     13.4147      8.1163
C    -10.9194     -0.0563      4.2822
C     13.6630      2.6936      7.3551
C     10.4708     10.5535      6.3370
C     -2.0806      3.1210      5.3042
C     -8.5342     -0.6661      5.0456
C     16.0389      3.3932     10.2827
C    -12.0752      2.4138      2.0912
C     -1.3031      7.9444      1.8422
C      3.7244     11.8966      8.6110
N    -11.8199     -0.5775      5.1493
C    -10.0766      0.6192      0.8722
O     17.5192      5.9653     13.9650
C     -3.5129      6.4272      0.6829
C     -2.3271      4.5179      2.6710
C     10.2591      8.3628      9.3622
H     22.3675      3.3555      8.2267
H     15.2066      0.1903      6.7401
H      7.6126      9.3644      5.4736
C     -2.1778      9.6715      0.1047
H     17.6981      6.1544     10.3446
H     14.4340      7.0275      9.0737
H     -0.0557      9.8626      2.2502
H      1.9984      7.8402     -2.3559
H    -10.0155     -0.5926      0.7307
C      2.0755      7.5439      2.6520
H    -10.9484      0.7300      0.4065
C      1.7154      8.5013     -1.4470
C     -6.5576     -2.6213     -0.1298
H     20.7464      4.7875     11.5173
C     -2.5078     10.3049     -1.2939
H    -12.7781     -1.0167      4.8232
C     16.8364      8.4584      4.5662
C     -5.2979      7.3612      2.7390
C     -5.1534     -3.0404      1.4647
C     -7.0575     -4.4366      1.7231
C     17.4487      6.0601      6.6482
C      2.0952      5.0424      2.6861
C     18.8608      5.6532     13.2507
C     18.3002      7.3470      3.9594
C     -5.0435      6.8815      1.1586
H      2.4203      9.0331     -0.9932
C     17.3581      5.1839      7.9090
O      1.0703     11.1196      0.9312
C      1.9137      5.1963      1.0939
C     19.1958      7.0314      5.0878
H     12.3517      2.1731      6.0954
H     -2.6416     14.6234      1.0218
H     -2.9154      4.9606      1.6786
C     20.0127      5.4379     14.1785
H     -0.3771      3.8409      3.2929
O     20.3526      7.3541      5.2123
H      7.0480      8.4901     10.9794
H     -3.2368      8.5354      1.4895
H      1.6861      2.8651      0.3122
H     17.6869      5.5504      4.3485
C     -0.4812      7.8994     -1.4711
H     18.5744      4.5653      6.4530
C      2.9049      6.3410      3.0658
C     -1.2908      4.3005      5.0369
C      0.5150      6.7389      5.4494
H      5.4416      9.2143      8.6109
H     15.2825      1.8437      6.0334
C      1.5135      5.6612      4.8963
H    -11.7098     -0.0372      2.3195
H     10.9412      7.5271      9.7524
C      7.9122      7.4109      7.8327
C     17.1009      0.3701      8.3956
C     19.2469      7.8769      2.9290
C      9.9640      9.8729      5.2039
C      0.0082      6.4488      3.0184
C     -1.2996      6.5377      3.8193
H     10.1781     12.3142      7.6243
H      1.8944      3.9249     -0.8313
H     -9.4444     -4.6289      1.5296
H     17.4034      4.1100     13.1453
H     -2.1536      2.6370      4.1110
C     14.8921      1.2554      9.1504
H     11.4083     11.1901      6.4643
C      0.8848      5.3321      3.5302
C     -7.6202      3.4915      2.4784
H     14.1375      4.4397      8.0282
H      5.2908      8.0585      7.6238
C     20.3239      3.6009      9.3057
H     -2.0918     11.6740      0.6321
H      7.0930     11.8222      6.3063
C     15.0680      6.2035      8.8661
C     -1.2219      5.4700      6.0085
C    -10.9371      0.2337      2.9453
C     14.7216      4.4101      5.7050
C     14.7193      6.0156      7.4932
C      2.1177      3.8294      0.2387
H     -1.2451      5.6533      1.2203
H     -8.8315      0.6833      2.8753
H      8.3978      9.2470      8.9923
H     -9.2646      0.5705      0.1209
H      7.2721      6.5680      7.3445
H     19.7928      1.9590      7.5037
H     10.3870     10.2422      4.1925
C     -4.9462     12.7019      0.4637
H     18.7071      0.8531      4.1294
C     12.5504      9.1556      5.0612
C      8.9977      8.7946      9.7996
C      8.6928     11.1672      7.9741
H     -2.7429      3.3149      2.7687
H      8.9722     10.1914      4.6978
C     12.6280      7.4171      7.4968
C     13.9355      3.3179      5.0214
O     -4.0362      5.7108      4.3364
C     11.3948      8.0173      5.7014
C     19.2219      1.0923      7.0900
C     18.0946      1.4813      6.4629
C     15.6823      1.0079      6.4260
H     17.9203      2.5405      9.3674
H      8.0784     12.8020      9.6371
H     12.4788     10.9442      5.6293
H     -9.2728      1.5189      4.8809
H     12.8174      7.3803      8.4418
C     14.9085      4.6576      7.2272
H    -12.4703      4.3724      1.4631
C     16.9827      5.3298      5.3751
C     16.8682      2.5942      9.5252
H     -5.9249     12.7158      0.2436
H      0.6875      6.4642     -0.1881
C      8.1405      8.3013     10.9592
H     15.3361      3.1176     11.0512
H     20.4952      5.6236      8.1681
H     -1.0583      6.3915     -0.1240
C     17.0709      2.8754      4.6636
C     17.4028      9.6630      5.3526
C      6.4163     12.1303      8.5334
C      7.3639      9.6169      6.5302
C     18.6317      4.5257      7.7580
C     18.6517      0.3757      8.2526
H     12.0682      4.2994      7.8668
H     -5.9859     -1.7213     -0.1368
H     -3.3584      5.3706      0.3032
C      1.7795     10.0992      0.8044
H     15.5437      4.0720      9.6170
H     10.4055      9.4779      3.3189
