286

C      6.8571    -16.9350     13.7632
N     -1.6791     10.4580      1.6579
C      4.1125      1.5632     20.3945
C      1.8947    -10.5922     15.4490
H      1.0039      1.3006      9.6921
C      7.5961     -7.5973     15.5711
H     -3.0278      6.6983      2.1076
C      7.4471     -8.9410     15.9790
C      3.5381      4.2661     18.5858
C      6.7441    -15.6351     11.6227
C      3.2487     -5.5981     19.6658
C      5.7737      1.9113     16.7718
C      6.0898     -3.6172     21.6255
C      0.9284      8.7375     13.5810
C     -3.6250     11.9652      0.0303
C     -4.5751     13.7134      1.0109
N      0.5963      2.7228      6.1731
H      7.5606    -16.0398     11.2879
C      1.1329      6.0991      0.6523
O     -0.7640     -9.9682     13.4275
C      3.3884      4.1565     20.1402
H      0.2602      6.9075     11.2170
H     -5.4966     13.7501      1.7359
C      2.8737      6.5151     17.3690
C      3.4523    -15.4213     16.3194
H     -1.7329      3.3901      6.7271
C      3.9737    -16.7361     16.0611
H     -7.8154      7.5129      9.4209
H      6.2900    -15.0153     10.9388
H     -9.0882      4.9436      8.7580
H     -0.4007      5.7017      6.7259
H      6.0499      1.0859     22.2582
C      3.5193      3.0103     21.0648
H     -2.8648     11.8964     -2.0057
H      6.2760      1.1919     17.3624
C      7.7030     -0.8284     22.4878
C     -3.2102     11.0443     -1.2821
C     -6.8845      5.7652     10.1653
H      1.3943     -1.0086     21.8427
H      1.6010      5.9933      9.4966
C      6.2302     -9.3680     16.2789
H     -7.4149      3.5897      8.2984
H      3.6145     -1.5146     22.4301
H      3.0014      6.1132      8.6518
C      3.7589    -14.9030     17.6019
C     -2.7547      8.4903      5.0130
O      1.9337      8.6653      5.1361
C     -1.1545      8.1219      6.9430
C     -4.1403      7.8395     11.9353
C      7.5511    -18.3207     12.8409
C     -6.5860      6.6995     12.4349
H      4.2373     -8.3915     15.0258
H     -6.8102      3.5603     13.0637
H      4.2237    -15.8346     14.5586
H      0.2199    -13.6191     17.9408
H      8.2530     -5.0416     21.7465
C     -5.4435      2.8745      8.3395
H      0.6403    -11.7218     13.9570
C     -6.1826      5.8785     11.3249
C      8.2184     -6.7529     16.6542
H      8.0178     -5.3421     15.0833
C     -0.8501      6.8166      5.0848
H      3.7027     -4.2170     21.7697
H      3.1610    -14.7298     15.6075
H      4.0508      6.5915     15.5690
H      3.7404      4.5245     10.9324
H      3.4643      5.1519      0.7671
C     -3.6024     11.4721      7.5060
C     -6.3088      5.0739      8.9516
C      3.0169     -5.1796     18.1463
C     -3.6958     14.6810      1.1030
C     -7.2956      4.3726     13.0629
C      4.4817    -17.0242     14.6926
H      8.8845     -4.3233     16.3712
H      3.4428      0.4397     10.2852
H      6.1733     -3.0684     22.5893
H      5.0629    -13.4705     18.3349
C     -0.0265      2.7978      8.3732
H      7.6571    -15.7445     15.1879
C      0.5566      8.5625     12.1900
C      2.2088      2.4198      8.2932
H     -1.9945      6.4641     10.7157
H     -2.0887      9.6039     -1.8541
C     -0.2313      6.1328      1.3239
H     -7.3390      7.3610     12.1749
H     -1.8384      2.2471      5.1144
H      9.1793     -5.4408     20.3819
C     -2.7139      7.2703     12.4396
O      2.6279     10.2597     13.3037
C      7.0184     -4.2383     20.5564
C      3.8580     -4.3685     20.4060
C      3.6171      1.1761      9.5482
C      3.2141    -12.6647     18.1674
H      8.4188    -15.5484     13.5047
H      7.2480      0.7446     20.1044
H     -2.0619      5.7619      6.4443
H     -9.2027      5.9017     10.3137
C      3.9195     -9.4787     16.4529
C     -2.3876      8.6736      0.5869
C     -1.6272      6.8038     11.6585
H     -5.1895      1.8694      8.5859
C      5.1823      2.2956     18.1050
H      1.6903     -1.4631     20.4332
H      4.6684    -12.9804     16.3713
C      2.1098     -0.8545     21.1120
C      4.4450     -1.7979     20.1316
C     -1.9008      5.0182      3.6155
C      3.7151     -2.9948     19.6897
C      2.5572     -9.2525     15.8907
C     -8.1135      6.6355     10.1138
H      2.0050      0.2037     21.6535
H      2.7242      7.5870     12.9269
H      0.3990     11.0812     14.8081
H     -5.2104      6.3497      5.9440
H     -2.8118     12.4362      0.5729
H      0.8568      3.9575      0.0140
O     -7.5081      7.0623      6.9891
C      0.8020      8.1589      4.4581
H      4.0313     -0.7242     19.6901
C     -2.7852      8.5545      3.4520
C     -2.3354      7.4648      2.6548
H      8.2716     -2.5652     21.5248
H      8.0581     -9.2504     16.7803
C     -2.2751      8.2898      7.6767
H     -3.6337     15.3456      1.9049
H      2.0844     -9.3066     16.9300
H     -1.4338     10.9769     -1.6044
H     -7.5584      4.9978     11.4098
C      2.6479    -11.7539     15.2087
C     -0.1790      8.6824      1.8252
O     -8.2177      4.8332     12.2009
O     -4.8743      3.7202     10.4977
C     -0.1733     -9.5724     14.3907
C      0.0759      3.9327      4.1603
C      6.9389     -1.8888     20.0230
H     -3.9043     10.2976     -1.8432
H      2.5755     -2.9821     19.5168
H     -0.8468      9.5472      3.9756
H     -0.4765      8.0927     10.2569
O      0.2601      9.9634      5.8952
C      5.7380     -2.0312     20.9481
C      0.9124      7.0840      6.7617
C      1.9285      7.4518     13.8887
H      2.9037      8.5210     15.4784
C      0.7957      7.6900      2.9031
H      7.9246      0.1582     22.4930
C      1.9990    -12.9026     17.4341
C      1.0532      2.6411      7.4881
C     -2.9510     10.8882      6.4289
C     -2.0270      3.2210      5.6426
C      4.2911    -13.3958     17.5554
C      3.0077      3.7483     10.3573
C      0.5709    -10.9170     14.8175
C     -1.6045      7.8275      1.5271
C      3.7017     -1.0797     21.2933
N      1.1478    -13.6248     18.3536
C      2.5074    -12.5340     13.8805
C     -3.1718      6.4413     13.5863
C     -2.1162      3.9136      2.6349
C     -2.5427      7.8233      9.0706
H     -4.9214      3.3671      7.6348
H      2.1558      0.9263     19.8600
H      7.9676     -3.2769     18.7886
C     -1.9445      9.9661      0.3627
H     -8.4233      6.7970     11.0734
H      2.0454      7.7478      9.2362
H     -0.4390      9.5642      2.5607
H      1.5013      8.2899     10.3447
H      2.0432    -13.6461     13.8754
H      0.3058      2.4400      9.3333
C      2.0946      7.4957     15.2721
H      1.6231    -12.0977     13.5180
C      1.6618      8.9230     11.3542
C      6.4924    -15.9898     12.8216
H     -5.5901      5.2786     11.9267
C     -1.9857     10.2877     -1.1271
H      1.7441    -14.4383     18.7201
C      4.0654     -4.5020     17.4674
C      7.9752     -5.2899     16.1904
C      8.1180    -16.2646     14.2802
C      5.9030    -17.3721     14.9666
C     -8.7131      6.1951      6.7293
C      2.1611      5.0854      2.6249
C     -6.7870      5.6985     13.5890
C      5.5215     -5.0856     17.2524
C     -4.5827      6.4049     13.4031
H      2.5710      9.6759     11.4481
C     -8.5325      5.0526      7.7892
O      0.4795     11.1532     13.8032
C      2.3560      5.1478      1.0399
H     -2.8938      9.1292      7.4031
C     -6.9789      7.4895      5.7643
H     -3.2390     15.1434      0.0161
H     -2.5481      4.2238      1.5831
C     -5.4810      5.6319     14.2021
H     -0.5361      3.0828      3.7255
O     -5.4349      7.2668      5.6006
H     -5.4183      7.7507     10.1435
H     -3.2970      8.4129      0.2750
H      1.9666      4.4594     -0.8153
C     -0.4005      7.6940     11.3195
H     -6.8344      4.4723      6.6354
C      2.8844      6.4072     15.8921
C     -1.3635      4.2464      4.9372
C      0.6581      6.8382      5.1524
H      5.1505     -4.3739     21.9408
H      3.2931      2.2358     18.7041
C      1.5411      5.8350     17.6032
H      0.7471    -12.9933     15.6626
H     -1.7943      6.8463      9.5304
C      7.9201     -5.2582     20.7598
C      4.3144      0.3609     21.4680
C      6.4403     -4.8917     16.3040
C     -3.2526      9.9189      5.2897
C     -0.0593      6.3799      2.9186
C     -1.4029      6.4406      3.5823
H     -2.8588     12.2459      7.8755
H      2.2294      2.7998      0.0052
H      4.1570    -17.7105     14.1838
H     -8.0009      3.9883     14.1396
H     -3.0387      3.2020      5.9682
C      2.1856      1.4085      9.2528
H     -2.2313     11.7339      6.1547
C      0.8402      5.2504      3.3356
C      4.9571     -8.8631     15.9727
H      0.9974      4.8978      7.8302
H      4.8904     -4.5055     20.2679
C     -5.4983      3.7598      9.4868
H     -1.4405     11.3723      1.7074
H      6.9492     -1.2839     19.2325
C      2.1688      6.6836      8.8026
C     -1.1168      5.4621      5.8992
C      1.6717    -12.6703     16.1411
C      1.9540      4.6166     18.5876
C      2.1179      6.5773      7.3657
C      1.8772      3.9463      0.2010
H     -0.7422      5.2034      1.2566
H      3.7538    -11.7532     15.2189
H     -3.4639      9.6630      9.4899
H      3.5143    -12.2153     13.2691
H      7.3612     -6.2859     20.5815
H     -6.4053      2.4572      8.0830
C     -4.7496     12.6501      0.0494
H      4.7715      1.7566     16.3289
C     -0.2694      9.0689      4.8340
C     -3.3944      8.6446      9.9444
H      8.8726    -16.7714     14.6665
C      8.1683     -1.4358     21.0925
H     -2.1831      2.9157      3.0095
H     -3.8408     10.0794      4.3682
C      0.1022      7.7144      7.5305
C      0.8733      3.7108      5.4831
O      9.0965     -7.3885     17.3551
C     -1.3393      8.1433      5.6032
C      6.2771      0.9491     20.1917
C      5.3554      1.4842     19.3805
C      3.0480      1.2137     19.3270
H      4.9106      2.9478      9.9925
H      8.2697     -1.2141     23.2866
H      1.0076      9.2777      6.1448
H      3.2347    -11.5657     17.3216
H      0.5012      8.2180      8.3023
C      2.0198      5.0219      7.0593
H      0.2749     -8.5638     14.7008
C     -8.9303      5.5471      5.1676
C      3.8811      2.8883      9.8112
H     -5.7135     12.2231     -0.4369
H      0.9722      6.0571     -0.4301
C     -4.3995      8.0879     10.6259
H      2.4365      3.2046     11.0704
H     -5.7360      6.0189      8.7008
H     -0.8896      5.7887     11.7944
C      3.8755      2.9199     17.7916
C      4.2346     -3.0158     18.4502
C      6.2314     -0.9458     21.9879
C      7.2110     -3.2837     19.5476
C     -7.0485      4.4613      7.7404
C      5.8811      0.3205     21.4648
H     -0.7180      2.0373      8.2145
H      5.4765    -15.7183     13.4339
H      5.4110     -1.2300     22.9194
H     -2.8083      5.4130     13.8680
H     -0.0820    -11.0283     15.8969
C      1.4073     10.1395     13.6103
H      2.3774      4.2093      9.4888
H     -2.5078      9.6726      2.8896
286

C      7.0728    -16.9688     13.9614
N     -1.6327     10.5267      1.5018
C      4.0969      1.3364     20.3053
C      1.9892    -10.6387     15.2216
H      1.1435      1.2580      9.9053
C      7.8621     -7.7112     15.5489
C      7.6359     -8.9864     16.1779
C      3.3843      4.1399     18.5920
C      6.6163    -15.5441     11.6709
C      3.3141     -5.4834     19.6414
C      5.6939      1.9858     16.7607
C      6.2442     -3.3439     21.5297
C      0.6163      8.7751     13.5403
C     -3.4849     11.8615     -0.0395
C     -4.6045     13.8245      1.0918
N      0.6747      2.7422      6.1754
H      7.4340    -15.7723     11.1474
C      1.2639      6.2849      0.5131
O     -0.8155     -9.9939     13.4983
C      3.2961      4.1562     20.0764
H      0.4798      6.9172     10.9617
H     -5.5002     14.5131      1.6733
C      2.8660      6.4477     17.5534
C      3.3497    -15.5281     16.2667
H     -1.3154      3.1259      6.6056
C      4.0221    -16.7078     16.1319
H     -7.9982      6.5616      8.9021
H      6.3012    -14.5524     11.6517
H     -8.3778      5.2204      8.7529
H     -0.5045      5.1435      6.7315
H      6.4129      1.2802     22.0635
C      3.5639      2.6469     20.8478
H     -2.5596     12.1610     -1.8932
H      6.4344      1.1685     16.7099
C      7.8049     -0.6856     22.2243
C     -3.1551     11.3943     -1.3545
C     -6.8833      5.6648     10.1878
H      1.6444     -1.4026     22.0292
H      1.3034      5.7714      9.2327
C      6.3315     -9.8073     16.1940
H     -7.3557      3.3325      7.6166
H      3.8417     -2.0234     22.0591
H      3.0884      6.0246      8.9276
C      3.8042    -14.9056     17.4587
C     -2.7790      8.4286      5.0484
O      1.8986      8.7385      5.1629
C     -1.0943      7.9992      7.0081
C     -4.0989      7.7680     11.9573
C      7.7189    -18.3936     12.8028
C     -6.4499      6.7599     12.3270
H      5.0999     -7.6331     15.9494
H     -6.8089      3.8848     12.4323
H      4.5206    -15.9832     14.0209
H      0.1129    -13.5044     18.2366
H      8.1599     -5.7742     21.9615
C     -5.3398      2.6238      8.5990
H      0.5146    -11.3648     14.0755
C     -5.9213      5.9571     11.1328
C      8.4080     -6.8633     16.4554
H      8.0769     -5.3838     14.9421
C     -0.8595      6.6229      5.0231
H      3.8165     -5.1452     21.2296
H      3.3772    -15.0278     15.3968
H      3.9487      6.1496     15.4851
H      3.6152      4.5248     10.8655
H      3.0203      5.7185      0.9170
C     -3.2387     11.4375      7.5430
C     -6.3421      4.9721      8.9844
C      3.0065     -5.0748     18.2049
C     -3.4436     14.6946      0.8581
C     -7.3819      4.4242     13.1869
C      4.6112    -16.9807     14.8259
H      8.3480     -4.5611     16.7525
H      3.7029      0.4821     10.7172
H      6.5151     -3.7624     22.5933
H      5.3684    -13.2931     18.0505
C     -0.0231      2.8940      8.4402
H      8.1353    -15.5882     15.2184
C      0.6730      8.5008     12.0304
C      2.1561      2.4692      8.2895
H     -1.7156      6.0922     10.7261
H     -2.2815      9.1510     -1.4940
C     -0.2466      6.3215      1.3521
H     -7.4327      7.0857     12.3362
H     -1.6784      2.4082      5.0510
H      5.7949      3.3473     18.5162
H      8.4493     -5.5554     20.0349
C     -2.7697      7.1864     12.3326
O      2.5443     10.2902     13.5294
C      7.0285     -4.1482     20.5921
C      3.7169     -4.2760     20.4386
C      3.5496      1.2097      9.9132
C      3.2146    -12.6065     18.0650
H      8.6827    -15.6657     13.6763
H      7.2706      0.8467     19.7667
H     -2.3686      5.6638      6.4070
H     -8.8551      5.8762      9.7218
C      3.7399     -9.3925     16.5769
C     -2.2583      8.6127      0.6173
C     -1.4684      6.6364     11.5730
H     -4.6221      1.7442      8.9413
C      5.1073      2.3336     18.1683
H      1.5300     -1.0310     20.4632
H      4.6237    -13.5788     16.4732
C      2.0376     -0.7809     21.2840
C      4.3016     -1.7656     20.2837
C     -1.9038      4.9218      3.6941
C      3.5553     -3.0182     19.7000
C      2.4348     -9.4089     16.1012
C     -7.9518      6.6188      9.9750
H      1.9065      0.2992     21.5686
H      3.0004      7.3097     13.5917
H      0.6994     11.7022     14.4208
H     -5.3152      6.2336      6.0002
H     -2.4819     12.2210      0.3352
H      0.9076      3.9309      0.1808
O     -7.4546      7.0241      6.8299
C      0.8280      8.1466      4.3793
H      4.5798     -0.8583     19.3219
C     -2.6769      8.6007      3.5586
C     -2.3189      7.3979      2.9371
H      8.2807     -2.3778     21.6240
H      8.6525     -9.1358     16.6295
C     -2.2863      8.2856      7.6235
H     -3.1279     15.1091      1.7745
H      1.6877     -9.7832     17.0149
H     -0.7451     10.6060     -1.5117
H     -7.5119      5.2149     11.3504
C      2.6572    -12.0147     15.0030
C     -0.1393      8.7095      1.8996
O     -8.1654      4.9732     12.0966
O     -4.7461      3.9503     10.5024
C     -0.1694     -9.7069     14.6939
C      0.0298      4.0173      4.0015
C      6.9802     -1.8846     19.9538
H     -3.6739     10.7778     -2.2040
H      2.6027     -2.4414     19.6405
H     -1.0198      9.7036      4.2657
H     -0.4952      8.1953     10.2977
O      0.2320      9.8952      6.0158
C      5.8382     -1.8294     20.8613
C      0.8028      7.1153      6.6597
C      1.8553      7.4986     13.7162
H      2.9802      8.7171     15.3992
C      0.7925      7.7080      2.9704
H      7.8992      0.1269     22.7618
C      1.9026    -12.9558     17.4934
C      1.0265      2.7802      7.5165
C     -2.7667     11.0106      6.4002
C     -2.0638      3.1877      5.7370
C      4.3024    -13.5993     17.6259
C      2.8088      3.7074     10.4064
C      0.5581    -10.7111     15.1327
C     -1.3149      7.8363      1.5527
C      3.5727     -1.1497     21.3529
N      1.0943    -13.4506     18.3892
C      2.4532    -12.4236     13.6019
C     -3.2614      6.3310     13.5744
C     -1.8603      3.9885      2.5792
C     -2.5769      8.0095      8.9865
H     -4.5123      3.1928      8.0558
H      1.8949      0.9180     19.6526
H      7.5575     -3.7957     18.7133
C     -1.8861     10.1247      0.3747
H     -7.9109      7.5546     10.5242
H      2.6291      7.1830      9.5771
H      0.1128      9.7161      2.2706
H      1.0568      8.3728     10.2975
H      2.4569    -13.5866     13.8205
H      0.4028      2.7553      9.4397
C      2.2517      7.5410     15.2614
H      1.8136    -12.1041     12.7827
C      1.6274      8.7590     11.1933
C      6.4673    -15.8117     13.0368
H     -4.9245      5.4727     11.0563
C     -1.7801     10.2690     -1.0880
H      1.1165    -14.2734     19.0533
C      4.3371     -4.3495     17.3242
C      7.7496     -5.3660     15.9928
C      8.3315    -16.3836     14.3943
C      6.0500    -17.2190     14.9521
C     -8.6324      6.2255      6.6397
C      2.1582      5.0210      2.5583
C     -6.6867      5.6876     13.5128
C      5.5457     -5.0781     17.4327
C     -4.6690      6.5450     13.7330
H      2.4007      9.6191     11.4129
C     -8.6684      5.1519      7.7339
O      0.4205     11.1233     13.6542
C      2.1030      5.1857      1.1615
H     -2.7170      9.1530      7.2266
C     -6.9057      7.5505      5.6328
H     -3.3633     15.2990     -0.2429
H     -1.7105      3.6794      1.3851
C     -5.4394      5.6050     14.2448
H     -0.0768      2.9731      3.6745
O     -5.5455      7.1919      5.7667
H     -5.4874      8.2048     10.5598
H     -3.3404      8.7916      0.6547
H      2.3997      3.9555     -0.6125
H     -8.1712      5.2198      4.6166
C     -0.3416      7.7800     11.2999
H     -6.4558      4.3417      6.9321
C      2.9436      6.3754     15.9869
C     -1.4789      4.4861      5.0205
C      0.5895      6.8603      5.2109
H      5.1732     -3.7446     21.0909
C      1.5104      5.7283     17.5736
H      0.6423    -12.9817     15.9085
H     -1.5145      7.3840      9.0357
C      7.8300     -5.5107     20.9596
C      4.2790      0.3510     21.4331
C      6.4442     -4.8969     16.0038
C     -3.1346     10.0147      5.3695
C     -0.0739      6.2371      2.7390
C     -1.3787      6.5307      3.5998
H     -2.7332     12.3024      8.0069
H      2.1664      2.7262      0.8843
H      4.1853    -17.5625     14.2682
H     -8.1128      3.6519     13.7411
H     -3.1089      3.4187      5.8602
C      2.2449      1.5106      9.2813
H     -1.6271     10.9987      6.2391
C      0.7890      5.1679      3.4320
C      4.9472     -8.7225     16.0544
H      1.2219      4.3199      7.7487
H      4.7120     -4.1398     20.1186
C     -5.4565      3.9007      9.4781
H     -1.2418     11.3040      1.7326
H      6.8361     -1.1545     19.3038
C      2.1073      6.5293      8.8796
C     -1.2675      5.5516      5.8685
C      1.6545    -12.6069     16.0642
C      1.8225      4.7017     18.5366
C      1.9584      6.7358      7.3530
C      1.8169      3.8354      0.3662
H     -0.9762      5.7609      0.7401
H      3.6382    -12.1671     15.5786
H     -4.1363      9.3290      9.3629
H      3.5126    -12.0218     12.8656
H      7.0738     -6.3681     20.8709
H     -5.8702      2.3733      7.6897
C     -4.5796     12.7516      0.1021
H      4.8068      1.4951     16.1196
C     -0.4110      9.0396      4.9763
C     -3.3071      8.6783      9.8963
H      9.0667    -16.8612     14.8319
C      8.2279     -1.4914     21.0392
H     -2.3817      3.1508      3.0006
H     -4.2690     10.1020      5.0696
C     -0.0005      7.6257      7.8005
C      1.0171      3.5085      5.0625
O      8.9027     -7.2689     17.6347
C     -1.3599      8.1323      5.3925
C      6.2924      0.7630     19.9815
C      5.2070      1.5104     19.4324
C      3.0505      0.8723     19.4336
H      4.8729      3.0940      9.9670
H      7.9669     -1.4462     22.9290
H      0.8944      9.2752      6.5928
H      3.3141    -11.5777     17.4670
H      0.1504      7.8120      8.8096
C      1.8610      5.0348      7.1732
H      0.1751     -8.6415     14.7290
C     -9.0061      5.6888      5.3290
C      3.8690      2.7525      9.4347
H     -5.2254     12.6388     -0.8483
H      1.3446      5.8974     -0.4363
C     -4.4558      8.0363     10.7459
H      2.2364      3.3552     11.2346
H     -5.1158      5.3317      8.7894
H     -1.0900      6.1073     12.6586
C      3.6398      2.9182     17.8856
C      4.3575     -3.1994     18.1883
C      6.1474     -0.9605     22.0276
C      7.1674     -3.3120     19.5735
C     -7.2160      4.3887      7.7779
C      5.7960      0.4983     21.5643
H     -0.8614      2.6866      7.8376
H      5.5099    -15.4763     13.6243
H      5.6159     -1.2325     23.0066
H     -2.9648      5.3441     14.0969
H     -0.0464    -11.7347     15.5072
C      1.3498     10.0811     13.3627
H      2.0887      4.3943      9.8298
H     -2.7383      9.7027      3.0674
