286

C      6.7886      8.6292      0.6732
N     -2.3415     10.9066     14.0005
C      3.8028      1.4939      7.1837
C      2.0184      2.4820      3.1421
H      1.2715      1.3515     10.2827
C      7.5516      5.0791      2.6354
H     -2.9847      7.4082     15.1734
C      7.4273      3.7086      3.0021
C      3.4138      4.1524      5.5097
C      6.0593     11.0001     -0.9014
C      3.2386      7.4899      6.5332
C      6.0562      1.9742      4.0228
C     -6.7313      9.6943     21.7483
C      0.9828      8.6068     13.5517
C     -3.6602     12.1630     12.2856
C     -4.6491     13.6411     13.7295
N      0.5037      2.4721      6.0935
C      0.5267      6.1567     13.6568
O     -1.3942      1.9728      1.4886
C      3.3073      4.2558      7.0783
H      0.1347      6.5976     11.2543
H     -5.5614     14.0298     14.3961
C      2.9624      6.5359      4.4379
C      4.3621     10.4278      3.0772
H     -8.4720      5.9053     13.8589
C      3.9642      9.0049      3.2536
H     -8.2964      7.0437      8.8999
H      6.7064     11.7710     -1.1635
H     -8.9195      5.6323      8.5631
H     -0.4126      5.4516      6.6322
H      5.8656      1.5625      9.1071
C      3.0901      2.7022      7.7597
H     -2.6482     11.8624     10.5324
H      7.0073      1.4768      4.2624
O      1.8456     10.1851     15.0649
C     -4.8863     12.1821     22.0733
C     -3.2278     11.2989     11.1351
C     -6.6165      6.1402      9.9099
H    -11.2651     13.3046     21.6023
H      2.7349      6.2876      9.0249
C      6.1618      3.1362      3.1364
H     -6.9002      3.5239      7.3286
H      5.0964     11.4464     -1.0143
H     -9.2264     12.2062     22.6067
H      2.8091      7.8406      9.0598
C      4.6846     10.9269      4.5478
C     -2.5296      9.0003     17.6416
O      1.9175      8.9325      4.4518
C     -1.5979      8.3207      6.9536
C     -4.0830      7.9905     12.0493
C      7.6865      7.6176     -0.0283
C     -6.2846      6.7321     12.2684
H      4.9893      5.1323      2.8128
H      4.1489      9.1669      1.4442
H      1.1040     -2.0726      4.1740
H     -6.2067      7.5702     22.2333
C     -5.1217      2.4577      8.8869
H      0.3041      1.3349      2.4302
C     -5.5785      6.4238     10.9949
C      8.0566      6.0114      3.6703
H      8.2980      7.1492      2.2352
C     -1.0117      6.8245      5.1279
H      3.3840      9.0887      8.2482
H      5.2983     10.3639      2.4205
H      3.7327      6.4699      2.5134
H      3.6396      3.3033     10.9701
H      2.5671      5.7743     14.0283
C     -3.1974     11.4531     20.5475
C     -6.4528      4.7626      9.2634
C      3.0707      7.7916      5.0676
C     -3.4174     14.1804     13.5807
C     -7.4133      4.2065     12.8350
C      4.5422      8.3485      2.0545
H     -3.5131      8.7924     17.6451
H      8.3850      8.0028      3.7067
H      3.4413      1.4059     10.6836
H     -6.2946     10.0405     22.6936
H      5.6594     12.3856      5.6206
C     -0.3193      3.6609      7.7288
C      0.5667      8.3936     11.9134
C      1.7380      2.4215      8.1713
H     -2.0062      6.7136     10.4684
H     -1.2613      9.6685     11.2398
C     -0.6355      6.3470     14.4119
H     -7.3042      7.1340     11.9816
H     -2.1894      2.7865      4.7870
H      7.3375      7.8186      6.6424
C     -2.6422      7.2851     12.6009
O      3.1241      9.8149     13.4021
C     -5.8821      8.8540     20.8340
C      3.8784      8.5581      7.4158
C      3.4319      1.5252      9.5126
C      3.0214      0.4947      5.3422
H      8.6733      8.8266      1.9310
H     -2.7941     11.7543     13.4994
H      6.5103      0.4426      6.8821
H     -2.2954      6.2408      6.3644
H     -8.4920      6.2330     10.6071
C      3.9544      3.5674      3.4516
C     -1.9496      8.4331     13.4363
C     -1.7097      6.7753     11.6063
H     -4.2687      2.0674      9.1835
C      5.2020      2.3507      5.2323
H    -10.9245     11.2863     22.2082
H      5.3991     12.7006      3.7595
C    -10.8903     12.1518     21.6774
C     -8.6187     11.0871     20.7031
C     -2.0081      5.1117      3.6246
C      3.9090      9.8307      6.7982
C      2.7161      3.6689      2.8423
C     -7.8949      6.8215      9.9444
H    -11.3556     11.9495     20.5707
H      2.6349      7.3078     13.3960
H     -3.9742     12.8960     11.4747
H      1.3488      3.8511     12.2320
O      5.5605      6.7950      6.4193
C      0.7780      8.1571      4.4853
H     -8.4055     11.6521     19.6099
C     -2.3696      8.9510     16.1689
C     -2.0730      7.5512     15.6082
H     -4.6072     10.1272     21.4793
H      8.0492      3.6997      3.8176
C     -2.8304      8.0863      7.5287
H     -3.2980     15.2413     13.7554
H     -1.5103     11.1310     12.0330
H     -8.5868      4.6171     11.4560
C      2.7408      1.1148      2.6847
C     -0.0116      8.4899     14.8711
O     -8.6836      4.6325     12.5354
O     -5.1405      3.5260     10.8657
C     -0.4110      2.9218      1.9938
C     -0.0544      4.1604      4.3396
C     -6.0025     10.9463     20.1100
H     -3.9624     10.5170     10.4064
H      2.7821     10.4326      6.6643
H     -0.5968      9.6329     17.0618
H     -0.1701      7.6596     10.2142
O      0.1541     10.1087     19.3566
C     -7.1384     10.9539     21.0452
C      0.8226      7.1597      6.8586
C      1.7159      7.3252     13.8408
H      2.3040      8.5620      2.9178
C      0.7060      7.5828      2.9478
H     -4.6071     13.1742     21.6658
C      2.3974     -0.3743      4.4993
C      0.6107      2.8022      7.5020
C     -2.3491     11.2383     19.4450
C     -2.5572      3.6676      5.3376
C      5.2231     12.1886      4.6632
C      3.6068      4.1804      9.9287
C      0.6869      2.3524      2.5165
C     -1.2190      7.6577     14.5198
C     -9.3042     12.1888     21.5365
N      1.6501     -1.3934      4.8467
C      3.1074      1.5481      1.2834
O     -7.4882      6.3027     14.1863
C     -3.2557      6.1698     13.3221
H     -6.6660      9.6948     18.9352
C     -2.9571      4.3940      2.6722
C     -2.9869      7.1509      8.6511
H     -4.6719      2.5825      7.9387
H      1.7522      0.2061      7.1933
H     -4.8293      9.6712     19.0282
C     -2.2630      9.7785     13.2870
H     -7.5697      7.9183     10.3841
H      1.1603      7.3940      9.2360
H     -0.1001      9.3061     15.5877
H      0.4270      9.6144     10.5219
H      0.9294     10.3657     15.0948
H      3.9835      2.2862      1.3079
H     -1.7365      2.3024      0.6804
H      0.1424      3.9254      8.9166
C      2.0000      7.4725      2.2666
H      3.6619      0.9747      0.4599
C      1.2645      9.0861     10.9353
C      6.6202      9.8526     -0.3793
H     -5.0698      5.3360     11.0071
C     -2.1926     10.1148     11.8709
H      0.9634     -1.1161      5.4375
C      4.2583      8.4399      4.5300
C      7.9566      7.3785      3.1667
C      7.7117      9.4611      1.4657
C      6.0193      8.1150      1.8574
C      4.4201      6.2288      6.3435
C      1.9438      4.8765      2.6531
C     -6.5759      5.5411     13.2762
C      5.5896      7.8228      4.3833
C     -4.6323      6.5135     13.8634
H      1.9006      9.9684     11.1326
C     -8.5699      5.1369      7.6234
C      1.5989      5.0534     14.2070
C      6.3674      7.2158      5.2568
H      1.2509      1.8999      5.8435
H     -2.6750     13.8034     12.6872
H     -3.3034      4.8127      1.9303
C     -5.3494      5.3957     14.2285
H     -0.4604      3.1702      3.5078
O      7.5894      7.4806      5.7337
H      7.1210      9.9469      2.1134
H      2.5891      3.6703     13.4353
H      4.8310      5.5681      4.3607
C     -0.4666      7.5114     11.1970
H     -6.7436      5.1285      7.1068
C      2.7013      6.2344      2.8145
C     -1.5070      4.6224      4.7923
C      0.5380      6.9438      5.3335
H     -7.6267      8.9623     21.6735
C      1.4471      5.9479      4.7622
H      1.8216     -1.0520      2.7116
H      3.7333     11.3147      2.6527
H     -3.4404      6.0852      8.1399
C     -5.5658      7.6748     21.3128
C      4.2319      0.6413      8.3165
C      6.5058      7.7916      3.0421
C     -2.6226     10.5996     18.1984
C     -0.0665      6.2555     15.8873
C     -1.4809      6.5457      3.6177
H     -2.7637     11.4856     21.5083
H      1.1004      2.9125     13.4458
H      3.8098      7.6438      1.6841
H     -7.2096      3.3469     13.4766
H     -3.6693      4.1065      5.3604
C      2.0233      1.6112      9.3498
H     -1.1049     11.3779     19.3908
C      0.7914      5.0852      3.5865
C      5.1785      4.0090      2.8550
H      1.3927      5.0574      7.6649
H      4.8620      8.2956      8.0825
C     -5.6499      3.5593      9.7301
H     -2.7864     11.2699     14.8750
H     -6.3459     11.7304     19.5967
C      2.0917      7.1284      8.7286
C     -1.3910      5.5251      5.9421
C      2.5720     -0.1956      3.1404
C      1.8001      4.8633      5.6636
C      1.9935      6.7817      7.2926
C      1.5371      3.9125     13.1891
H     -1.1014      5.3574     14.4245
H      3.5390      1.2825      3.4246
H     -3.4987      8.8798      9.8024
H      2.3406      1.9029      0.7414
H     -4.9240      6.9899     20.9059
H     -5.9964      2.1130      8.8419
H     -1.9501     11.0513     17.6940
C     -4.6816     12.2743     13.2918
H      5.3009      1.1618      3.6856
C     -0.1582      9.0905     17.9105
C     -3.6716      7.7966      9.7075
H     -7.1361      3.8504     11.9426
H     -3.4682      9.1974     16.0029
C     -4.6205     11.1010     20.9135
H     -2.8012      3.3416      2.4530
H     -3.4877     11.0703     17.5460
C     -0.2373      7.6558      7.4235
C      0.8647      3.6715      5.3087
O      8.4878      5.6342      4.7894
C     -1.4071      8.3116     18.3926
C      6.1801      1.3962      7.2362
C      5.0257      1.7275      6.3556
C      2.6714      0.5510      6.6796
H      6.7159      2.4152      7.2162
H      5.0100      3.3227      8.9312
H     -4.5872     11.9052     23.0736
H      4.2926     12.8812      4.8655
C      2.0879      5.2109      7.0325
H     -0.3616      3.9250      1.7005
C      3.9754      5.6365      5.0446
C      3.8287      2.9933      9.2082
H     -5.6150     11.8783     13.8258
H      0.5397      6.0967     12.5604
C     -4.6402      7.5884     10.7512
H      2.5744      4.5076      9.6218
H     -1.6574      5.6754     11.8399
C      3.9235      3.0877      4.7729
C      4.2933      9.7583      5.3301
C     -6.5505     12.4274     21.9073
C     -5.8485      9.5654     19.6458
C     -7.1061      4.3585      7.9031
C      5.6468      0.6479      8.4606
H     -1.2226      3.8748      7.0941
H     -3.8413      9.0601     12.1784
H     -7.1538     11.9788     22.9236
H     -2.4246      5.7256     13.8466
C      2.0513      9.5465     13.8651
H      4.5918      4.5981      9.9092
H     -1.6441      9.6529     15.9330
