288

C      7.1958      9.0252     13.5595
N     10.8578     -2.3857      1.3185
C      3.7462      1.3436      7.1263
C      1.9040      2.3475      3.1120
H      1.2856      0.7125      9.1988
C      7.4115      5.1482      2.6932
H      9.8057     -5.6016      3.3051
C      7.2662      3.6735      2.5885
C      3.6175      4.2400      5.7913
C      5.6680     10.6548     12.2873
C      3.0917      7.4547     19.4419
C      6.0815      2.1594      4.1030
C      6.3121     -3.1419      8.9546
C      0.8718      8.5897     13.6878
C      9.2016     -0.9635     -0.7760
C      8.3650      0.7584      0.9185
N      0.7358      2.4819      6.1298
C     13.9043     -6.7227      0.6460
O     -1.2291      2.6222      0.9185
C      3.1533      4.4319      7.3943
H     -0.0678      7.4237     10.6060
H      7.9969      0.8461      1.8817
C      2.7555      6.3243     17.2755
C      4.0604     10.3314     16.1307
H     -1.6998      2.9375      6.1672
H      4.2548      5.5406      1.6326
C      4.0803      8.9836     16.0022
H      4.1014      7.1607     -3.2904
H      5.9605     11.1832     11.4490
H      3.8421      6.1752     -4.0909
H     -0.7127      5.3505      6.4301
H      5.6517      1.3580      9.4339
C      3.1734      3.2315      8.1539
H      9.9033     -1.3331     -2.7754
H      7.0187      1.7743      4.4931
O      1.4691     10.1706     15.6631
C      7.6874     -0.7239      9.0696
C      9.5946     -2.0232     -1.8565
C      6.2887      6.1907     -3.2846
H      1.5077     -0.3320      8.4302
H      2.5732      6.0016      9.4965
C      6.1199      3.4718      3.3573
H      5.5909      3.4073     -4.9957
H      4.2883     -0.8302      9.3993
H      2.7991      7.4766      9.2006
C      4.7149     10.8346     17.2868
C     10.0788     -4.1279      5.0069
O     15.0384     -4.2463      4.7874
C     -1.6006      8.2910      6.9265
C     -4.3450      7.9640     11.9645
C      7.6392      7.6209     12.8571
C      6.5275      6.7776     -0.8421
H      5.3753      4.9752      2.7236
H      4.6528      9.8771     14.0831
H      1.3518     -2.0059      3.8282
H      7.3950     -5.6931      9.4398
H      2.9926     10.5334     12.7297
C      7.9387      2.7227     -3.9510
H      0.6723      1.3069      1.8446
C      7.0064      6.0293     -2.0491
C      8.2109      5.8748      3.4392
H      8.8039      7.5051      2.1989
C     -0.9453      6.8642      5.0950
H      3.7185      8.3681     21.3957
H      3.9857     11.1644     15.4640
H      4.0626      6.5985     15.7624
H      4.2269      4.7703     10.5026
H     15.9167     -7.5448      1.0900
C      9.7087     -1.4760      7.7500
C      6.3486      4.9320     -3.9280
C      2.9990      7.6759     18.0428
C      9.5148      1.2210      1.0498
C      5.2517      4.6280     -0.4225
C      4.7600      8.7341     14.6313
H      9.1659     -4.8039      5.2499
H      8.1955      8.0435      3.8263
H      4.0301      1.0397     10.3213
H      6.6428     -3.3577     10.0581
H      6.0628     12.4722     18.0699
C     -0.4571      3.4611      8.1862
H      8.8438      8.5665     14.4663
C      0.2925      8.9949     12.0298
C      1.7150      2.6695      8.5384
H     -2.0919      6.3575     11.1873
H     11.5045     -3.3587     -0.9133
C     12.5721     -6.6895      1.4677
H      5.7179      7.5185     -0.8371
H     -1.4219      2.2659      4.2195
H      7.6120      7.1954      6.8164
C     -2.7378      7.4590     12.7249
O      2.7671     10.2308     13.5889
C      7.2054     -4.0768      8.0342
C      3.7569      8.3719     20.3387
C      3.4866      1.3977      9.4504
C      3.0613      0.4851      4.9649
H      8.0516     10.5245     14.7668
H     10.0587     -2.4963      1.9280
H      7.1547      0.6994      7.2278
H     -2.5442      5.5598      6.0221
H      4.6297      6.3455     -2.2593
C      3.8105      3.6480      3.4867
C     10.9070     -4.5064      0.5269
C     -1.6490      6.8468     11.9268
C      4.9987      2.2393      5.1936
H      1.7686     -1.8426      8.9744
H      5.0801     12.6740     16.4257
C      2.3938     -1.1728      8.3572
C      4.4586     -1.7655      7.3993
C     -2.2464      4.8955      3.5740
C      3.7641     10.0172     19.5238
C      2.4135      3.6063      2.8205
C      5.0912      7.0274     -2.8824
H      2.3546     -1.6497      7.2984
H      2.8868      7.4297     13.5263
H      8.8873      6.1656      5.2333
H     10.1888     -0.3555     -0.6187
H     15.5176     -9.4323     -0.0381
O      5.5326      6.7526      6.3664
C     13.8020     -4.8407      4.4445
H      4.3515     -1.1016      6.4834
C     10.2239     -4.0155      3.4072
C     10.7113     -5.2936      2.7042
H      8.0390      2.8086      2.6901
C     -2.6270      8.3020      7.7315
H      9.7497      1.9724      1.6808
H      1.8686      1.9825      4.2293
H     11.3051     -1.5856     -0.7439
H      3.4840      4.6209     -1.2324
C      2.6318      1.0670      2.1357
C     12.7416     -4.3483      2.0102
O      4.0618      5.0394     -0.5445
O      7.3913      3.7745     -1.9591
C     -0.2842      3.0687      1.8461
C     -0.0173      3.9118      4.1176
C      7.1108     -1.9404      6.9811
H      8.7411     -2.7502     -1.8568
H      2.7301     10.1470     18.9436
H     12.3320     -3.3834      3.9121
H     -1.2448      8.5072     10.8869
O     12.8990     -2.8557      5.8210
C      5.9987     -1.8454      8.1051
C      0.7626      7.4879      6.8049
C      1.7858      7.3947     13.8693
H      2.7938      8.2574     15.4879
C     13.5788     -5.1862      2.9640
H      8.3848      0.3391      8.9192
C      2.3944     -0.4925      3.9890
C      0.6188      2.9307      7.5682
C     10.4736     -2.0551      6.7638
C     -1.9974      3.0142      5.1561
C      5.3925     12.0093     17.2303
C      3.5985      4.0528     10.3952
C      0.6351      2.2459      2.4401
C     11.7080     -5.2279      1.6231
C      3.8175     -0.9759      8.4526
N      1.6021     -1.4272      4.6807
C      2.6948      1.4194      0.7727
O      5.0067      6.1187      1.3080
C      9.6036      6.4961      0.6781
H      5.7884      9.8929     18.8784
C     -2.6006      4.2407      2.3955
C     -2.9583      7.5480      8.8857
H      7.9721      3.0722     -5.0348
H      2.0106      0.1606      6.9884
H      7.4067     -4.2223      6.1018
C     10.6354     -3.2644      0.4132
H      5.4805      7.9306     -2.3728
H      1.2650      6.8856      9.2733
H     12.5756     -3.2070      1.8911
H      1.0508      8.8544     10.3148
H      3.6973      1.0259      0.4971
H     -0.9362      2.7617     -0.0520
H     -0.3453      4.3072      8.7727
C      2.1225      7.3767     15.3357
C      1.3276      9.2175     11.2296
C      6.6352      9.7552     12.5676
H      7.9574      5.5815     -2.0395
C     10.6604     -2.6421     -0.9921
H      0.9209     -1.0635      5.3830
C      4.3760      8.2773      4.2996
C      8.0569      7.3124      3.0341
C      8.3172      9.5471     14.3980
C      6.2969      8.4572     14.8232
C      4.0482      6.2388      6.5449
C      1.8101      4.8913      2.5136
C      5.9912      5.8088      0.4140
C      5.7854      7.3341      4.0128
C      8.3329      6.3925      0.7236
H      2.4967      9.0297     11.7351
C      4.0504      5.6078     -5.1838
C     14.8081     -7.8324      1.0336
H     -3.8072      8.8982      7.6102
C      6.3606      7.0592      5.3841
H      1.6157      1.9565      5.9514
H     10.3010      1.0408      0.3136
H     -3.6471      4.8487      2.0859
C      7.2833      5.6626      1.1849
H     -0.1593      2.8963      3.5089
O      7.8082      6.9695      5.9258
H     -5.6195      8.3481     10.6277
H      8.7413     10.0606     13.4490
H     13.6102     -9.2810     -0.2851
H      4.9215      5.4556      4.9392
C     -0.6222      7.9014     11.5315
C      2.9091      6.2423     15.6744
C     -1.4047      4.4374      4.6650
C      0.4857      7.0028      5.2941
H      5.4795     -3.9207      8.7861
H      3.1136      2.2999      5.1782
C      1.3691      5.8030      4.7521
H      1.7749     -1.2100      1.9544
H      1.6794      9.6655     16.4929
H     -3.6938      6.8388      8.2622
C      7.1796     -5.4974      8.2001
C      4.0938      0.3922      8.2948
C      6.6457      7.6009      2.9932
C      9.7241     -2.8132      5.6319
C     12.8158     -6.6223      3.0093
C     -1.7337      6.4697      3.6647
H     10.3816     -0.5278      8.4758
H     14.6397     -8.2607     -0.8213
H      4.0985      8.0649     13.7755
H     -3.0067      3.1526      4.8641
C      2.0835      1.5134      9.1973
H     11.5349     -1.5793      6.8381
C      0.6386      5.2099      3.5869
C      4.8893      4.0218      2.7174
H      1.0197      4.6883      7.7191
H      4.8852      8.3355     20.2247
C      7.0693      3.8013     -3.2347
H     10.7103     -1.4994      0.8980
H      7.4122     -1.2988      6.1048
C      2.1395      6.7492      8.8190
C     -1.4739      5.5436      5.7476
C      2.1629     -0.2328      2.5822
C      1.6956      4.5755      5.5733
C      1.9136      6.7313      7.1638
C     14.5916     -8.9419      0.0329
H     12.0881     -7.6231      1.0369
H      3.7511      0.8798      2.8318
H     -3.1365      9.1816     10.1300
H      2.1100      2.1390      0.4638
H      8.0918     -6.0199      7.9593
H      8.0053      1.7359     -4.1349
H      9.8899     -2.4408      4.6381
C      8.2602     -0.6224      0.1433
H      5.7223      1.3961      3.4220
C     12.7218     -3.9526      4.8390
C     -3.4798      8.1605      9.8784
H      6.2202      4.9011     -1.1244
H      9.4854     -3.1185      2.9674
C      8.2675     -1.7620      8.1371
H     -2.9761      3.1863      2.7158
H      8.8308     -2.4344      5.6187
C     -0.3562      7.6779      7.3911
C      0.9005      3.4526      5.2351
O      8.8070      5.4205      4.6243
C     11.3424     -4.7160      5.4776
C      6.2846      1.3084      7.2478
C      5.0290      1.8277      6.5696
C      2.9520      0.5581      6.3106
H      6.3763      2.3275      7.5825
H      5.0380      2.8202      9.5426
H      8.4514     -1.0302     10.0928
H     12.9634     -3.4040      6.7426
H      3.8697      0.9916      4.6637
H     -0.3960      7.9653      8.3696
C      1.8663      4.9186      6.9706
H      0.0135      4.1720      1.8067
C      3.8675      5.5623      5.3395
C      3.9790      2.7673      9.4728
H      7.3258     -0.8994     -0.3770
H     13.7648     -7.0667     -0.4925
C     -4.5313      7.8478     10.6585
H      2.7246      3.6574     10.9566
H     -1.2685      6.1374     12.6173
C      3.9769      3.1779      4.9486
C      4.7385      9.8892     18.4043
C      6.2845     -0.5481      8.8915
C      7.3585     -3.4085      6.7858
C      5.5055      4.6149     -5.0369
C      5.6362      0.6150      8.6053
H     -1.2718      3.3440      7.4241
H      7.5048      9.7986     11.8956
H      5.8585     -0.8448     10.0629
C      1.6400      9.8313     14.0772
H      2.9033      4.7077      9.7144
H     11.0099     -2.9771      3.4047
