291

C     19.8456      8.8276     13.4700
N     10.6991     -2.1217      1.0028
C      3.6584      1.4147      7.2297
C      1.9216      2.6149      2.7898
H      1.1854      1.4682      9.9025
C      7.4144      4.9048      2.4256
H      9.7062     -6.0941      2.3705
C      7.5144      3.6309      3.2145
C      3.2703      4.2897      5.6695
C     19.0940     10.8103     11.9721
C     16.2821      7.5660     19.5392
C      6.0373      1.9484      4.0023
C      6.1702     -3.2560      8.9700
C     13.8192      8.6964     13.6043
C      9.1864     -0.7520     -0.6627
C      8.3564      0.7018      0.9080
N      0.5177      2.4883      6.0101
C     13.6701     -6.6950      0.7089
O     -1.4816      2.0856      1.4912
C      3.3519      4.1985      7.1370
H     13.2754      6.8381     11.0485
H      7.4696      1.1018      1.1121
C     15.8174      6.4937     17.2539
C     17.7053     10.4323     16.0382
H     -2.5822      3.0522      5.9548
H      4.4550      6.5934      0.7207
C     17.2431      9.0840     15.9482
H      4.6737      7.4346      8.8828
H     19.9508     11.7124     11.5766
H      3.9194      5.1776      8.7654
H     -0.9333      5.4142      6.7073
H      5.9569      1.4275      9.5662
C      3.2079      2.8562      7.9247
H     10.2727     -1.6900     -2.5961
H      7.0344      1.5937      3.9530
O     14.5568     10.5504     15.0261
C      7.8881     -0.8121      9.1158
C      9.6254     -1.9210     -1.4598
C      6.2211      5.8608      9.9990
H      1.4617     -0.2650      9.3338
H     15.5786     -6.3644      9.6864
C      6.2742      3.0778      3.3115
H      5.9620      3.7844      7.1005
H     18.0692     11.0009     12.3528
H      4.0472     -0.9533      9.5541
H     15.1118     -4.7839      8.9717
C     17.8383     10.7911     17.5470
C     10.3566     -3.9389      4.7915
O     15.0743     -4.1289      4.6381
C     11.4229     -4.5864      6.9444
C      8.7472      8.0883     12.2320
C     20.5495      7.4673     13.1068
C      6.5042      6.7778     -0.7216
H      4.8850      4.3277      2.0192
H     16.9920      9.0054     14.0009
H      1.2266     -1.6390      3.7912
H      6.8879     -5.8441      9.0884
C      7.8302      2.2810      9.0359
H      0.6704      1.2917      2.0135
C      7.1873      6.5374     10.9875
C      8.1109      5.7966      3.3929
H      8.1919      7.1628      2.1300
C     -1.0861      6.8446      4.9100
H     15.9991      8.9627     21.3049
H     18.4119     10.5133     15.2246
H     16.8739      5.6445     15.9140
H     15.6837     -7.6257      1.1190
C      9.7160     -1.7568      7.7368
C      6.3963      4.6149      9.1743
C     15.9136      7.9285     17.9992
C      9.6188      1.3681      0.5796
C      5.5693      4.2581     -0.1123
C     17.3577      8.3660     14.6991
H      9.7595     -4.5153      5.3272
H      8.4510      7.8305      3.8913
H      3.5108      0.9475     10.4607
H      6.9487     -3.3408     10.1132
H     18.6408     12.4103     18.7219
C     -0.3889      3.7525      7.7850
H     21.3825     10.2920     14.1687
C     13.3389      8.3989     12.1568
C      1.6962      2.4666      8.0950
H     10.8617      6.8338     10.8577
H     11.0025     -3.2714     -1.9633
C     12.4102     -6.6604      1.4950
H      5.7328      7.4784     -0.7537
H      7.7268      6.9899      6.2471
C     10.2330      7.2877     12.6453
O     16.1517      9.8036     13.5316
C      6.9328     -4.0211      7.8973
C     16.5516      8.5446     20.4479
C      3.5463      1.5181      9.5911
C      2.7993      0.4788      5.3643
H     21.4034      8.6347     14.6931
H     10.9085     -1.4905      0.2093
H      6.9757      0.6326      7.0716
H     -2.4534      5.8590      6.3943
H      4.3965      6.2005     10.2221
C      3.9925      3.5351      3.4270
C     10.6861     -4.5936      0.4655
C     11.4471      6.7231     11.7047
H      8.8399      2.0103      9.5508
C      5.0852      2.3468      5.3148
H      2.2553     -1.7654      9.5300
H     18.6397     12.6188     16.9077
C      2.1954     -0.7204      8.6912
C      4.6784     -1.8489      7.3877
C     -2.0090      5.1952      3.6032
C     16.8197     10.0176     19.7751
C      2.7079      3.7596      2.7500
C      5.0824      6.8906      9.9379
H      1.8790     -1.2016      7.9534
H     15.5473      7.0258     13.1190
H      8.1966      6.6129      4.7501
H      9.7300      0.2487     -0.8673
H     14.3735     -8.4900     -0.7000
O      5.7376      6.8990      6.4853
C     13.7405     -4.6803      4.3944
H      5.0010     -1.1607      6.7011
C     10.4157     -4.0726      3.2857
C     10.7585     -5.3786      2.7125
H      8.6039     -2.8179      9.0804
H      8.1251      3.2372      3.9750
C     10.0780     -4.8464      7.3392
H      9.2669      2.3662      0.4357
H      1.6994      3.0383      4.5750
H     11.3988     -2.0748     -0.8367
H      4.7704      5.5439     -0.7667
C      2.7300      1.3713      2.8540
C     12.8970     -4.2522      1.8106
O      4.3760      4.6664     -0.2936
O      7.8411      3.4672     10.8834
C     -0.2170      2.8592      1.5238
C     -0.0953      3.9293      4.2586
C      7.1101     -2.0087      7.3289
H      9.0844     -2.5765     -1.9017
H     15.8480     10.3105     19.2989
H     12.7669     -2.9347      4.1278
H     12.2372      8.1172     10.4828
O     13.1762     -2.7513      6.1791
C      6.0165     -1.8870      8.3204
C     13.5889     -5.7851      6.6357
C     14.7187      7.4755     13.8057
H     15.6023      8.2628     15.2220
C     13.5377     -5.2094      2.9753
H      8.4858      0.0628      8.6604
C      2.2797     -0.3688      4.3068
C      0.4154      2.8104      7.4400
C     10.5550     -2.1444      6.7211
C     -2.6894      3.7122      5.2516
C     17.9586     12.1741     17.5990
C      3.6031      4.1285     10.0501
C      0.5253      2.1862      2.5164
C     11.6615     -5.1184      1.5071
C      3.7450     -0.6809      8.5178
N      1.5821     -1.5140      4.8484
C      3.2190      1.5126      1.2054
O      5.2574      6.2528      1.1758
C      9.4651      6.1275      0.2333
H      6.1064     -3.3933      6.1163
C     -2.8089      4.5174      2.8412
C      9.7759     -5.7936      8.6605
H      8.0391      2.3592      7.7218
H      1.6273      0.6989      7.0150
H      7.9489     -3.6657      6.1511
C     10.5436     -3.2772      0.3481
H      5.4782      7.5858     10.6611
H     14.0990     -6.2339      9.4345
H     13.4611      9.3191     10.4542
H     13.7494     10.1797     15.5103
H      3.9408      2.5598      1.2319
H     -1.6202      2.2734      0.4899
H     -0.6357      4.3641      8.7563
C     14.9684      7.4053     15.2989
H      3.4457      0.5802      0.8316
C     14.2673      9.0189     11.1476
C     19.5526      9.7759     12.4744
H      7.6689      5.5156     11.2239
C     10.8411     -2.7520     -0.9925
H      0.6463     -1.1338      5.3513
C      4.2668      8.4130      4.4770
C      7.9016      7.1890      3.1414
C     20.7723      9.4401     14.4595
C     18.8706      8.2726     14.6717
C      4.1595      6.3809      6.5627
C      1.7869      5.0223      2.6542
C      6.2708      5.4995      0.4565
C      5.6974      7.8751      4.2790
C      8.4557      6.5041      0.9863
H     15.0508      9.5195     11.5894
C      4.3775      5.2213      7.7765
C     14.6273     -7.9092      1.1950
H      9.2975     -4.2402      7.2369
C      6.1176      6.9857      5.2611
H      0.4172      1.4729      5.5402
H     10.4702      0.8380      0.8023
H     -3.3071      4.8625      1.7945
C      7.3426      5.4117      1.3194
H     -0.0656      2.9842      3.7762
O      7.5170      7.6185      5.5915
H     20.1219      9.5552     15.4315
H     15.2760     -9.3113      1.1765
H      4.5765      5.3755      4.4378
C     12.5550      7.4854     11.4084
H      6.6344      5.0934      7.7184
C     15.8377      6.1341     15.8615
C     -1.3812      4.4975      4.9497
C      0.4765      6.9097      5.1587
H      5.3762     -3.9391      9.1306
H      3.6321      1.2151      4.7755
C      1.4186      5.8940      4.6838
H      1.9815     -0.6826      2.2622
H     16.9271     11.0685     15.6681
H      9.6373     -6.9183      8.9228
C      7.1794     -5.3813      8.2236
C      4.1141      0.6973      8.5311
C      6.4036      7.7090      2.9738
C     10.3026     -2.4649      5.3568
C     12.7688     -6.5482      2.9291
C     -1.4864      6.6497      3.5941
H     10.0120     -0.6162      8.2297
H     13.8911     -9.7773      0.2829
H     17.1481      7.3249     15.0238
H      5.6387      3.1440      0.3752
H     -3.5545      4.4667      5.2266
C      2.0160      1.8901      9.2139
H     11.3426     -1.4490      6.7229
C      0.6539      5.2204      3.5018
C      5.2391      3.8845      3.0231
H     14.5437     -8.2669      8.1450
H     17.4658      8.3023     20.7918
C      7.3224      3.5914      9.7672
H      9.8371     -2.4828      1.4654
H      6.7990     -1.1584      6.8268
C     14.9078     -5.8478      8.7719
C     -1.5503      5.5823      6.0282
C      2.5518     -0.0574      3.0509
C      1.7558      4.8808      5.6826
C     14.9821     -6.0603      7.1805
C     14.7137     -9.0312      0.1992
H     11.7009     -7.4400      1.7885
H      4.0651      1.2120      3.2081
H      9.6432     -3.9015      9.9312
H      2.3048      1.8979      0.7429
H      8.1747     -5.7143      7.7131
H      7.4491      1.1439      8.9286
H     11.0074     -1.8011      4.8978
C      8.1984     -0.4725      0.1659
H      5.2065      1.3536      3.6757
C     12.6190     -3.5782      5.0025
C      9.1740     -4.9741      9.6594
H      6.0296      4.0345     -0.8610
H      9.5304     -3.8091      2.9196
C      8.4156     -1.9465      8.2631
H     -2.2937      3.5960      2.6982
H      9.4496     -2.0111      5.0145
C     12.7949     -5.0750      7.3450
C      0.9094      3.6283      5.1713
O      8.6246      5.7760      4.6955
C     11.5291     -4.4943      5.3723
C      6.2852      1.2830      7.2505
C      5.0573      1.5684      6.4909
C      2.5816      0.6472      6.6462
H      7.0624      1.8912      7.7442
H      4.7727      2.7593      8.9621
H      7.9704     -1.4109     10.2900
H     12.4459     -3.0766      6.7799
H     16.9430     12.4579     17.4289
H     13.0507     -5.2644      8.1389
C     15.1012     -7.5906      7.1930
H     -0.4241      3.9573      1.1271
C      3.9839      5.7219      5.2514
C      3.9219      2.8950      9.2400
H      7.5614     -1.2919     -0.1162
H     13.1742     -7.2354     -0.3349
C      8.2527      7.7022     10.7051
H      2.5515      4.3633     10.5682
H     11.1048      5.9108     12.4196
C      3.9565      3.1291      4.8165
C     17.3740      9.7310     18.3029
C      6.3046     -0.6664      8.9081
C      7.0835     -3.2672      6.5879
C      5.5984      4.6437      7.8866
C      5.8904      0.8634      8.6124
H     -0.9719      3.9367      6.8671
H      8.6691      9.2790     12.2507
H      5.9877     -0.6548      9.9840
H      9.8722      5.3634      0.8131
C     14.9789      9.6555     13.8715
H      4.6879      4.2757     10.3890
H     11.3149     -3.3109      2.7504
