287

C     19.8382      8.7983     13.3219
N     -1.9631     10.7040      1.4546
C      3.7990      1.4808      6.9598
C      2.2402      2.5642      2.3141
H      1.3927      0.9585      9.8835
C      7.8571      5.0486      2.5159
H     -3.1725      6.9337      2.6147
C      7.4608      3.8882      2.8895
C      3.6017      4.2587      5.3310
C     19.5784      9.7872     10.8916
C     16.3327      7.3937     19.3713
C      6.3499      1.9187      4.0274
C     -6.8512      8.0980      8.6998
C     13.6879      8.6720     13.8745
C     -2.6824     12.2037     -0.5991
C     -4.3212     13.5729      0.5935
N      0.5255      2.5113      6.0217
C      0.5285      6.2582      0.7866
O     -1.4958      2.6291      1.2185
C      3.1647      4.3393      6.8416
H     13.3454      7.1459     11.1970
H     -5.1514     12.8608      1.2860
C     15.7139      6.2261     17.2785
C     16.4484     10.5513     16.2572
H     -2.8151      3.1900      6.8854
C     17.0490      9.2292     15.9832
H     -8.1390      7.1982     10.2137
H     20.3690     10.5109     10.6456
H      1.9114      3.4889      9.3947
H     -1.0348      5.1571      6.8386
H     -7.0263     14.5995      9.0614
C      3.2864      2.8339      7.6195
H     -1.8328     11.6471     -2.4872
H      7.0867      2.3236      4.6525
O     14.3805     10.2638     15.6777
C     -5.2976     12.6773      9.1649
H     19.0759     10.6131     12.8202
C     -2.4837     11.4029     -1.8268
C      5.9226      5.8327      9.8156
H      2.6776     -0.1307      6.5859
H      4.0380      5.6571      8.3092
C      6.2913      3.3022      3.0548
H      5.4301      3.5316      7.2356
H     18.7329     10.2596      9.9817
H     -8.7360     11.9221      9.2702
H      2.1474      7.7877      9.3918
C     17.4797     11.0513     17.2089
C     -2.6707      8.8863      5.3934
O      2.1993      8.6973      4.6664
C     -1.1712      8.5565      7.3163
C      8.6275      7.7516     11.7905
C     20.4735      7.4829     12.7752
C      6.3737      6.6543     -0.7308
H      4.9236      3.5816      1.2039
H     17.4192      9.8261     13.9475
H      1.2359     -1.5746      4.2825
H     -5.5240      6.0011      7.8328
C      7.5737      2.8480      8.4820
H      0.8760      1.2632      2.0472
C      6.9507      5.9369     10.8836
C      8.1316      6.0803      3.3032
H      8.2169      7.5655      2.0157
C     -1.1063      6.7386      5.3037
H     17.0691      9.0639     21.2789
H     16.2420     11.1152     15.1476
H      5.2753      6.3211      0.5251
H      2.2530      5.5568      0.7354
C     -3.4262     11.6365      7.7790
C      5.9291      4.5814      9.2104
C     15.9564      7.6914     17.7793
C     -3.7751     14.7014      0.9190
C      4.9604      4.7402     -0.4910
C     17.6973      9.0259     14.7285
H     -3.5729      8.3066      6.0419
H      8.1210      7.8523      3.8989
H      3.7829      1.1235     10.2211
H     18.7040     12.8704     17.2542
C     -0.4518      3.2735      8.2436
H     21.3511      9.4313     14.8788
C     13.4036      8.7662     12.4624
C      1.9039      2.2609      7.9406
H     10.7617      6.5175     10.7784
H     -2.2950      9.2843     -1.5020
C     -0.6576      6.2664      1.5604
H      5.6179      7.3290     -0.6995
H     -1.2386      2.8068      5.8125
H     18.0570      9.3268     12.6854
C     10.2470      7.5437     12.3992
O     15.6003     10.0260     13.7604
C     -5.6419      8.1336      8.0323
C     17.0066      8.6029     20.2087
C      3.5142      1.2984      9.2863
C      2.4888      1.2143      4.7531
H     -4.8432     11.7913     -0.4553
H     -0.9786     11.1404      1.2572
H     -6.8720     12.4654      6.5910
H      2.7208      6.3286      8.6039
C      4.0058      3.5698      3.1728
C     -2.0547      8.4105      0.4993
C     11.2265      6.9736     11.6500
H      8.3548      2.7385      9.1188
C      5.0964      2.1383      4.9242
H    -11.1806     11.9268      9.1300
H     17.3322     12.9377     16.9439
C    -10.5672     12.1487      8.3881
C     -8.4309     11.0244      7.3654
C     -2.4162      5.1379      4.1276
C     16.7815      9.8457     19.4165
C      2.6112      3.7051      2.5991
C     -7.6450      7.0966      9.2671
H    -11.1240     11.5965      7.6642
H     15.2256      6.8232     13.3796
H     -1.8441     11.9763     -0.0973
H      0.0064      3.8465     -0.4428
O      5.8123      6.8357      6.5255
C      0.7719      8.2198      4.4418
H     -7.5494     11.5253      6.7533
C     -2.5825      8.6904      3.6551
C     -2.3617      7.4356      2.9785
H     -4.3469     10.9565      9.1471
H      8.2125      3.7517      4.0565
C     -2.4819      8.3075      7.9402
H     -4.6124     15.6242      1.4617
H      2.5269      3.9241      5.0582
H     -0.5921     10.2914     -1.2678
H      3.1840      4.7503      0.6661
C      3.0010      1.3807      2.1261
C     -0.1805      8.4246      2.0109
O      3.4370      4.2379     -0.1395
O      7.7771      3.4553     10.4252
C     -0.4006      3.0160      1.6689
C      0.0814      3.7864      4.0899
C     -5.6610     10.6284      7.6193
H     -3.3442     11.0553     -2.4711
H     15.6550      9.9184     19.5427
H     -0.6664      9.8790      4.5094
H     12.3300      8.8436     10.7844
O      0.5563     10.1503      5.9416
C     -6.9649     11.0312      8.4741
C      0.7853      7.4833      6.9071
C     14.4876      7.3450     14.0612
H     15.5048      8.2902     15.3891
C      0.6648      7.6093      3.1304
H     -4.7456     13.5886      8.7976
C      2.1560     -0.0179      3.9369
C      0.6402      2.6805      7.4064
C     -2.5173     11.1973      6.6662
C     -2.2054      3.3330      5.8334
C     17.7249     12.4332     17.6969
C      2.9687      3.6721      9.8589
C      0.7758      2.2429      1.8139
C     -1.4289      7.6668      1.6718
C     -9.1511     12.1968      8.2050
N      1.9408     -0.9990      4.7649
C      3.5702      1.2874      0.7852
C      9.6006      6.2114      0.5118
H     18.8617      9.6787     18.8017
C     -2.6676      4.0957      3.0752
C     -3.1619      8.3588      9.3339
H      7.9842      3.5544      7.6989
H      2.2330      1.5564      6.8464
H      8.0703      4.3558     10.0886
H     -4.8627      8.9634      6.3231
C     -2.2431      9.8768      0.2421
H     -8.5167      7.2547      8.7480
H      0.7649      6.6387      9.3431
H     -0.4955      9.4083      2.7484
H     14.6678      9.5022     10.7381
H      2.6299      1.1929      0.0721
H     -1.9409      3.4251      3.0582
H     -0.5617      3.1156      9.1495
C     15.0052      7.3821     15.3671
H      4.3917      2.0829      0.1376
C     14.1759      9.5384     11.7386
C     19.0016      9.6679     12.4197
H      7.3641      4.9678     11.2159
C     -1.7816     10.0469     -1.2034
H      2.2200     -1.2109      5.8692
C      4.4745      8.6224      4.3940
C      7.7585      7.3302      3.0562
C     21.0169      9.5415     13.9297
C     18.9836      8.1836     14.6153
C      4.4793      6.1927      6.2835
C      1.9301      4.9998      2.4878
C      5.9530      5.5221      0.3586
C      5.6898      7.7302      4.0731
C      8.3305      6.2524      0.5260
H     14.9140      9.8401     12.2240
C      4.2998      5.2681      7.4095
C      1.4067      5.1399      1.1018
H     -3.3354      7.9330      7.5566
C      6.5538      7.2217      5.3655
H      1.5808      1.6770      4.6033
H     -2.7600     14.8207     -0.0247
H     -2.6891      3.9106      2.0593
C      7.2543      5.5104      1.1084
H     -1.1024      4.1261      4.0072
O      7.7212      7.2328      5.4331
H      8.6442      8.7433     11.5893
H     21.8079      9.6337     13.2260
H      0.3887      2.8987      3.5914
H      1.4299      4.7620     -0.9827
H      5.0677      5.7701      3.9830
C     12.4779      8.0133     11.3210
H      6.4945      4.9367      7.3710
C     15.7673      6.1959     15.7727
C     -2.2727      4.8118      5.4516
C      0.5693      7.0300      5.5074
H     19.8191      8.7006     10.5023
H      2.7666      2.0831      4.5118
C      1.5213      5.7129      4.8790
H      2.1030     -0.8727      1.8595
H     13.5563     10.2732     16.2376
H     -2.1999      8.2628     10.0329
C     -4.7849      6.9243      8.2395
C     -8.7890     13.4906      8.0326
C      6.2902      7.5472      2.9697
C     -3.0413     10.3394      5.5568
C     -0.1478      6.2779      3.0408
C     -1.4533      6.2735      3.9847
H     -2.9498     11.9727      8.7850
H      1.7540      3.3063      0.2037
H      5.1615      3.5723     -0.8776
H     -2.6685      2.6574      5.1054
C      1.8824      1.2110      9.0587
H     -1.5125     11.2794      6.4154
C      0.9197      5.0994      3.6261
C      5.1918      3.7003      2.4154
H      1.2930      4.7698      8.1089
H     18.0146      8.3341     19.9591
C      6.7684      3.5546      9.4480
H     -2.4555     10.2205      2.1570
H     -5.8624     11.0326      6.6499
C      1.8898      6.9025      8.8371
C     -1.7838      5.6717      6.2247
C      2.2720      0.0591      2.4166
C      1.1274      4.7921      6.0125
C      1.9128      6.6908      7.3715
C      1.1909      4.1113     -0.0144
H     -1.5887      5.6306      1.7501
H      3.7876      1.4638      2.8232
H     -3.5650      9.3951      9.0569
H      3.8867      0.2319      0.7760
H     -4.1300      6.9306      7.2741
H      7.4448      1.6993      8.2846
H     -3.0267     10.5921      4.4297
C     -3.9761     12.4555     -0.3246
H      6.1104      1.0832      3.1687
C     -0.1441      9.2806      5.1374
C     -4.1508      7.1478      9.4454
H      4.6666      5.2611     -1.5430
H     -3.2090      9.1983      3.1859
C     -4.6426     11.3579      8.3275
H     -3.6032      3.3233      2.9849
H     -4.0279     10.2316      5.5885
C     -0.0481      7.9069      7.8654
C      0.6645      3.5563      5.3723
O     -3.6879      5.9662      4.3873
C     -1.3219      8.4781      5.8621
C     -6.8135     13.7587      6.8019
C      5.0841      1.6607      6.2017
C      2.8436      0.9133      6.2246
H     -6.1010     14.0738      6.2385
H     -5.2305     12.5803     10.2123
H     17.4807     12.6969     18.8551
H      0.0341      8.2605      8.7587
C      1.8204      5.0296      7.2131
H     -0.2506      4.1247      1.8202
C      4.0871      5.6549      4.8825
C      3.8410      2.7845      9.0968
H     20.6085     10.6171     14.0015
H      0.5019      6.2349     -0.5047
C      8.1267      6.8513     10.5770
H      2.7398      3.2944     10.9947
H     11.6129      6.1950     12.3026
C      4.5647      3.4757      4.7520
C     17.7836      9.8386     18.2204
C     -6.8801     12.5034      9.1163
C     -5.1576      9.2590      7.4573
C      5.6254      4.6139      7.7298
C     -7.1744     13.6412      8.2749
H     -1.4836      2.9311      7.7095
H     -7.0184     12.5729     10.1294
H     10.0103      5.2305      0.3408
C     14.4568      9.8438     14.3689
H      3.0342      4.8242      9.4948
H     -1.5860      8.9827      4.2727
