287

C      7.1780      8.8542     13.6379
N     10.8520     -2.2799      1.1374
C      3.6537      1.4586      7.3407
C      1.9885      2.5369      2.6037
H      1.3496      0.9939     10.0301
C      7.8755      5.0348      2.6065
H      9.8639     -5.7650      2.8667
C      7.7400      3.6855      3.2066
C      3.4232      4.1429      5.5672
C      6.6119      9.9752     11.5389
C      3.4094      7.2976     19.4875
C      6.3769      2.0780      4.3276
C      6.0117     -3.5135      8.9679
C      0.7090      8.5425     13.5767
C      9.4210     -0.8098     -0.7756
C      8.0445      0.7892      0.3355
N      0.9728      2.4340      6.1273
H      6.3015      8.8645     11.4417
C     13.6327     -6.7000      0.5188
O     -0.5348      2.1950      0.0777
C      3.1992      4.1860      7.2127
H      0.0550      6.4531     10.9444
H      7.1578      1.1056      0.7596
C      3.1914      6.4002     17.3252
C      3.6209     10.5643     16.5230
H     -1.4074      2.7406      5.9541
H      5.8728      7.2875      1.4829
C      4.2199      9.3732     16.2488
H      4.1566      7.1296     -3.4674
H      6.8414     10.8069     10.7440
H      3.9904      5.6558     -4.2252
H     -0.6565      4.7508      6.1219
H      5.9326      1.0348      9.5754
C      3.1144      2.6693      7.9772
H      9.5687     -0.9692     -2.3497
H      6.9859      1.3946      4.9462
C      7.6604     -0.5472      8.8794
C      9.8853     -1.8197     -1.8832
C      6.0670      5.8828     -2.8140
H      1.6164     -0.1782      7.6954
H      1.1031      6.4450      9.2376
C      6.4987      3.2892      3.6564
H      5.0805      4.2879     -3.5493
H      3.9445     -1.1617      9.7068
H      2.6174      5.5957      9.0991
C      4.2218     11.3345     17.6127
C     10.5176     -4.1791      5.1881
O     15.1943     -4.2913      4.7951
C     -1.2810      8.2710      7.1436
C     -4.3843      7.9590     11.9039
C      7.3692      7.5462     12.9266
C      6.3865      6.5709     -0.6692
H      5.3201      4.8691      2.5879
H      5.5296      9.9228     14.1804
H      1.6964     -1.1214      5.5360
H      7.7159     -5.3056      9.1793
C      7.6899      2.8868     -3.9083
H      0.6297      1.3804      1.7681
C      6.8543      6.0559     -1.8175
C      8.0692      6.0945      3.5913
H      8.1602      7.2536      2.2045
C     -1.1152      6.7822      5.2308
H      3.5121      7.8807     21.3965
H      3.8517     11.6006     15.6791
H      3.9511      6.4056     15.2918
H      3.2283      4.7007      9.8926
H     15.5370     -7.4524      0.3214
C      9.7331     -1.4360      7.6829
C      6.4670      5.0871     -3.9901
C      3.1866      7.6169     18.0171
C      9.2279      1.2969      0.7858
C      5.3574      4.4747      0.2863
C      4.8037      9.3435     14.8628
H      9.5928     -4.9492      5.2482
H      8.3905      8.3568      3.4164
H      3.7178      0.6582     10.4059
H      6.7951     -3.2647      9.6409
H      5.8967     12.6977     17.8481
C     -0.2091      3.4530      7.7035
C      0.2694      8.0618     12.2243
C      1.6861      2.3395      8.3654
H     -2.1141      6.1488     10.6313
H     10.6820     -3.6879     -1.7181
C     12.3587     -6.6625      1.4907
H      5.4950      6.9489     -1.2135
H     -2.1009      2.1551      4.1951
H      7.7136     -5.7934      7.4943
C     -3.0569      7.6286     12.4186
O      2.7838     10.1712     14.0085
C      6.5522     -4.1949      7.7851
C      3.8418      8.3877     20.4817
C      3.3317      1.2042      9.5640
C      3.2190      0.1422      4.9772
H      8.9734     10.4554     13.8799
H      6.8366      0.3882      6.8987
H     -2.2942      5.4369      6.2505
H      4.1837      6.3148     -1.8588
C      4.0002      3.4414      3.5028
C     10.9669     -4.4592      0.2037
C     -1.8678      6.5915     11.5576
H      7.9797      2.2263     -3.0998
C      5.0119      2.0761      5.3733
H      1.9621     -1.8212      8.9874
H      5.3002     12.8497     16.2405
C      2.2202     -0.9276      8.0704
C      4.3063     -1.7895      7.4971
C     -1.9333      5.2825      3.4089
C      3.8409      9.8433     19.7167
C      2.9384      3.6831      2.5906
C      4.7930      6.6614     -2.7353
H      2.4498     -1.4079      7.1139
H      2.6475      7.6823     12.9130
H      1.3513     11.8562     13.2802
H      9.0957      6.9103      4.5261
H     10.4091     -0.6672     -0.0403
H     13.5780     -9.1061     -0.4781
O      5.8648      6.6093      6.4287
C     13.7761     -4.9446      4.4714
H      4.1741     -1.0980      6.4573
C     10.7501     -3.9165      3.6564
C     10.9035     -5.2386      2.6412
H      8.0292     -2.7068      8.8628
H      8.6073      3.4507      4.0189
C     -2.2234      7.6509      7.6880
H      9.5299      2.3384      1.2003
H      1.7970      2.3468      3.8098
H     11.8202     -1.8819     -1.1645
H      4.1334      5.9671     -0.1568
C      2.6849      1.1523      2.1549
C     12.7926     -4.4454      1.9398
O      4.4585      4.9895     -0.5842
O      7.1903      3.9336     -1.8847
C     -0.4388      2.8853      1.1763
C      0.0838      3.8635      4.0306
C      6.7035     -2.0241      6.9539
H      8.9946     -2.5833     -2.3589
H      2.6959     10.3536     19.4782
H     12.4972     -2.8342      4.4826
H     -0.3258      7.8253     10.1244
O     13.3890     -3.1279      6.3593
C      5.6430     -2.0333      8.1328
C      0.9105      7.2143      6.6501
C      1.6788      7.4083     13.7424
H      2.6147      8.1006     15.2402
C     13.6269     -5.3421      2.9231
H      7.8478      0.5410      8.6737
C      2.2970     -0.0443      3.8994
C      0.6493      2.3683      7.5529
C     10.5544     -2.1167      6.8343
C     -1.9211      2.9941      4.8450
C      5.4406     12.1539     17.1495
C      3.3822      3.5739     10.2415
C      0.5979      2.3986      1.9954
C     11.7535     -5.3677      1.4303
C      3.6006     -0.7797      8.5591
N      1.3342     -0.8981      4.4460
C      2.8050      1.0750      0.6055
O      5.1740      6.4886      1.1332
C      9.6502      6.6522      0.5356
H      5.7311     10.3072     18.6799
C     -2.5911      4.6021      2.3406
C     -2.5982      7.7186      9.0453
H      8.0360      2.8384     -4.9365
H      1.7466      0.5626      6.2209
H      7.7384     -4.0173      5.8986
C     11.0746     -3.1078      0.1813
H      5.5024      7.5660     -2.7107
H      2.0168      7.6927      9.2162
H     12.2633     -3.5598      2.1229
H      1.6905      8.7990     10.4281
H      3.7938      1.3648      0.1130
H     -0.8872      2.8188     -0.7373
H     -0.2429      3.8769      8.8760
C      2.0687      7.3466     15.2587
H      2.5712      0.1244      0.2346
C      1.3577      8.7728     11.3249
C      6.8616     10.0949     12.8184
H      7.8499      5.9605     -1.7344
C     10.8422     -2.5911     -1.1659
H      0.4420     -1.4303      4.2305
C      4.6100      8.5721      4.6508
C      7.7511      7.3940      3.1296
C      8.5253      9.3407     14.3550
C      6.0453      8.5840     14.9358
C      4.3776      6.0172      6.3520
C      1.9762      4.7645      2.4114
C      6.3083      5.6099      0.7005
C      5.6323      7.6094      4.3755
C      8.2041      6.5638      0.7533
H      1.6213      9.8187     11.9347
C      4.3342      5.1061     -5.2428
O      0.7361     11.1043     13.4471
C     14.5699     -7.8661      0.9475
H     -3.1658      7.3295      7.1070
C      6.3132      7.3571      5.4225
H      0.4592      1.6212      5.5849
H      9.7991      1.1903     -0.0458
C      7.5001      5.5081      1.2029
H     -0.3339      3.3406      3.2686
O      7.6415      7.0594      5.3857
H     -5.1107      9.0356     10.5779
H      9.0930      8.5096     14.2932
H     15.3791     -9.1466     -0.7018
C     -0.5867      7.3907     11.1565
H      5.9440      3.5541     -5.2817
C      2.9253      6.2367     15.6931
C     -1.2530      4.3811      4.6417
C      0.4671      6.8990      5.3499
H      2.7102      2.3548      4.9562
C      1.4926      5.7616      4.7791
H      1.2027     -0.5129      1.6217
H     -2.6300      6.6421      9.3335
C      7.0772     -5.3813      8.2670
C      4.0081      0.5597      8.4206
C      6.3231      7.6779      3.0758
C      9.6929     -3.0611      5.9377
C     13.0564     -6.6677      2.9340
C     -1.4489      6.4620      3.6763
H     10.0884     -0.6564      8.5795
H     14.3815    -10.0489      0.6197
H      5.2414      4.0168      1.2498
H     -2.8686      3.1629      5.1605
C      1.8812      1.3445      9.2638
H     11.5475     -2.1941      6.5666
C      0.8428      5.1724      3.4435
C      5.2390      3.8727      3.1251
H      0.9355      4.6931      7.5371
H      5.0945      8.8134     20.3763
C      7.5020      4.0060     -3.0384
H     11.1794     -1.2989      1.0084
H      6.9899     -1.4790      5.8478
C      2.0729      6.5309      8.6991
C     -1.3815      5.4028      5.7784
C      2.1117     -0.0692      2.5014
C      1.8787      4.5544      5.3665
C      2.1394      6.3393      7.0632
C     14.5276     -8.9753      0.0496
H      3.7342      0.9863      2.6154
H     -3.8200      9.3159      8.8615
H      2.1647      1.9621      0.5710
H      6.0727     -5.9117      8.4455
H      6.6546      2.3405     -3.7316
H      9.3462     -2.3053      4.9217
C      8.2219     -0.3281     -0.6894
C     12.8823     -3.6944      5.0339
C     -3.5225      8.6530      9.5107
H      6.0596      3.6895     -0.3846
H      9.8504     -3.5144      3.1721
C      8.1630     -1.7065      8.0822
H     -2.8748      3.5464      2.1879
H      8.6662     -3.1362      6.5161
C      0.0659      7.7765      7.4975
C      0.9270      3.4313      5.3376
O      9.2048      5.8666      4.2545
C     11.7510     -4.6766      5.7379
C      6.2208      1.2043      7.3196
C      4.9209      1.5997      6.6440
C      2.7651      0.5177      6.2017
H      6.8177      1.9344      7.8341
H      4.8767      2.6111      9.5601
H      8.0220     -0.5169      9.8643
H     14.1533     -3.8091      6.6944
H      4.3306      0.6536      5.0027
H      0.4645      7.6942      8.4885
C      1.8862      4.8908      6.9671
H     -0.8808      3.9478      1.0888
C      4.3046      5.5690      4.9417
C      3.7045      2.6614      9.3499
H      7.8722     -0.9892     -1.6368
H     13.2946     -6.5815     -0.6148
C     -4.4856      8.0861     10.6103
H      4.2412      3.9145     10.8187
H      7.3323      5.4284     -4.4356
H     -1.6819      5.6318     12.1642
C      3.8024      2.8751      4.8507
C      4.7179      9.7150     18.5227
C      6.1617     -0.8276      8.9707
C      6.9705     -3.5607      6.5904
C      5.3720      4.3142     -4.6163
C      5.6954      0.6244      8.5803
H     -1.2337      3.2857      7.3375
H      6.6955     11.1498     12.9732
H      5.5446     -0.9860      9.9476
H     10.3271      5.9017      0.7834
C      1.5205      9.9503     13.6158
H      2.6225      3.3585     11.0419
H     11.4205     -3.1223      3.8876
