287

C     19.7849      8.7132     13.5613
N     -1.9612     10.6415      0.8907
C      3.5425      1.4903      7.2170
C      2.0497      2.5034      2.4043
H      0.8707      2.2552      9.8887
C      7.2946      5.2890      2.6218
H     -3.1560      7.1614      2.6025
C      7.4008      4.0953      3.3251
C      3.5570      4.1107      5.4359
C     19.1957     10.1909     11.5312
C     16.2347      7.4734     19.4958
C      6.3001      1.9139      4.2706
C     -6.7292      9.3272      8.9666
C     13.7448      8.9917     13.6535
C     -3.3715     12.0428     -0.6122
C     -4.1971     13.3490      1.3330
N      0.1822      2.6120      6.1026
C      0.7852      6.4758      0.7131
O     -1.4150      2.1377      1.0555
C      3.3360      4.1349      7.0161
H     14.0110      7.2670     11.6689
H     -4.2536     13.3189      2.4915
C     15.9506      6.3815     17.2802
C     17.3762     10.4089     16.1043
H     -1.4869      2.4086      5.6060
C     16.8272      9.1068     15.9149
H      5.3657      7.4979     10.5857
H     20.2068      9.7706     11.4969
H      2.1593      3.9931      9.6362
H     -0.9721      5.1193      6.6205
H      5.9702      1.4759      9.1817
C      3.1217      2.7864      7.9143
H     -2.9228     11.7534     -2.5476
H      7.1615      1.4044      4.6836
O     14.1052     10.1339     15.5475
C      7.5597     -0.3665      8.8954
H     18.0628     10.3269     13.2453
C     -3.4126     11.0068     -1.6132
C      6.0342      5.5937      9.8682
H      1.4213     -0.2217      7.9302
H      4.3581      5.6741      8.4336
C      6.6159      2.8912      3.2246
H      5.7131      3.5152      7.5109
H     18.8841     10.5596     10.5016
H      3.8750     -1.1939      9.3055
H      2.1655      7.7265      9.2136
C     17.1793     10.9464     17.4267
C     -2.7069      8.8860      4.9207
O      1.9655      8.5937      4.5095
C     -1.3685      8.0859      7.0713
C      8.7068      7.7412     11.5864
C      7.6810      7.4286     12.9706
C      6.4994      6.6967     12.3726
H      5.4783      3.7918      1.4062
H     17.0076      9.0672     13.4655
H      1.8251     -2.1577      4.2885
H     -6.1490      6.5212      8.5993
C      7.6407      2.3533      8.9943
H      0.4455      1.3675      1.4381
C      6.9452      6.0932     11.0165
C      8.1299      6.3127      3.2512
H      7.9965      8.1403      1.9748
C     -1.0936      6.8114      5.1502
H     15.2316      8.9859     20.8579
H     18.4369     10.2014     15.6481
H     16.8364      5.9532     15.4188
H      2.8778      5.5907      0.7610
C     -3.2151     11.2457      7.8743
C      6.0979      4.4860      9.0910
C     16.1082      7.7324     17.8121
C     -3.8263     14.6570      0.7335
C      5.1785      4.8815     -0.3473
C     17.4498      8.6179     14.5478
H     -3.1100      7.9862      5.1109
H      8.3976      8.6564      3.5415
H      3.1346      1.4776     10.5299
H     18.8602     12.2484     18.1723
C     -0.6718      3.3553      8.1972
H     19.8970     11.0301     14.5577
C     13.6814      8.8411     12.1947
C      1.6186      2.5486      8.0419
H     11.3539      6.6874     10.4454
H     -2.6202      8.9967     -1.9654
C     -0.6157      6.4580      1.3406
H      5.7702      7.5558     12.3104
H     -2.5126      2.8690      4.7880
H      7.5450      6.5003      5.2762
C     10.3360      7.2517     12.3107
O     15.5783     10.8218     14.2139
C     -6.0569      8.4954      7.9509
C     16.2639      8.6092     20.5241
C      3.0156      1.4654      9.4919
C      2.1294      1.3451      4.9210
H     -4.3640     11.2047      0.9280
H     -0.8086     10.5969      0.8199
H      5.9767      0.0075      6.5288
H     -2.6285      5.4486      6.5772
H      3.1517      6.3310      8.9845
C      4.1726      3.4996      3.1263
C     -2.2409      8.3485      0.4118
C     11.6280      7.0150     11.3779
H      7.1464      1.5197      9.4840
C      5.1399      2.5034      5.4307
H      2.1947     -1.3572      9.2970
H     17.7553     13.1918     17.0510
C      2.2093     -0.9865      8.1510
C      4.3351     -1.7541      7.3866
C     -2.2031      5.0117      3.6806
C     16.6646      9.8312     19.5164
C      2.7300      3.5992      2.9941
C      5.1806      6.7558      9.7284
H      2.0109     -1.7129      7.4138
H     15.3129      7.4280     13.1255
H     -3.3133     13.0534     -1.0301
H      1.5802      4.8386     -0.5012
O      5.5402      7.0390      6.7160
C      0.8522      7.9574      4.5595
C     -2.4766      8.8504      3.3760
C     -2.1736      7.6356      2.6414
H      7.9876     -2.4458      9.2148
H      8.2938      4.1786      3.9830
C     -2.5996      8.2162      7.5516
H     -3.8183     15.6512      1.3028
H      2.4973      4.4497      4.9141
H     -1.2662     10.6489     -1.9589
H      3.9587      3.4708      0.0840
C      2.9772      1.3187      2.3493
C     -0.2069      8.6351      2.0187
O      4.1691      4.3557      0.4679
O      7.6523      4.0143     10.7031
C     -0.4294      2.9761      1.7147
C     -0.1293      4.1488      4.2742
C      7.2252     -2.0357      7.3225
H     -4.3616     10.4596     -1.5306
H     15.7283     10.1154     19.1239
H     -0.4550      9.9234      4.4588
H     13.2702      8.0046     10.4949
O      0.2671      9.8505      6.4303
C      5.7204     -1.8088      7.9594
C      0.9061      7.3428      6.7815
C     14.6027      7.5503     13.9395
H     15.8018      8.7569     15.9810
C      0.6400      7.7559      3.1501
H      7.7427      0.3783      8.0189
C      2.1277      0.0218      4.0766
C      0.2664      2.8630      7.4679
C     -2.5768     10.6587      6.7728
C     -2.0089      3.2453      5.6479
C     17.8097     12.1637     17.9134
C      3.0898      3.8475      9.9914
C      0.6348      2.0456      2.2148
C     -1.4792      7.8804      1.4271
C      3.6583     -0.7796      8.3358
N      2.0060     -1.2511      4.7669
C      3.3970      1.2236      0.8862
C      9.7557      6.0788      0.3495
H     18.7374      9.3458     18.5101
C     -2.5709      4.2895      2.5956
C     -3.0463      8.0170      8.8448
H      8.6740      2.2997      9.5855
H      1.3895      0.5317      6.7628
H     -5.2625      9.3862      6.0517
C     -2.3069      9.6114      0.0582
H      5.4044      7.3419      8.8578
H     -0.7463      9.4781      2.4403
H     15.4297      8.7711     10.7038
H      3.1906      2.2055      0.6442
H     -2.3047      2.6289      0.9087
H     -0.6077      3.7250      9.2012
C     14.8141      7.4702     15.3132
H      4.3786      0.7550      0.7962
C     14.8723      9.2254     11.5848
C     18.7861      9.5531     12.6273
H      7.7256      5.5937     11.5198
C     -2.2309     10.0950     -1.4882
H      2.2164     -1.1405      5.9617
C      4.3959      8.2291      4.1661
C      7.8109      7.7850      2.9826
C     20.3045     10.1387     13.9559
C     18.8938      8.5436     14.7813
C      4.4676      6.2998      6.3906
C      1.9615      4.9247      2.7925
C      6.0560      5.7134      0.4430
C      5.6045      7.6285      4.1331
C      8.4259      6.2195      0.7065
H     15.7852      9.4763     12.1053
C      4.4931      5.1292      7.4992
C      1.6395      5.2332      1.1155
H     -3.2377      8.2360      6.7329
C      6.0577      7.4361      5.4625
H      1.0127      2.0013      4.5390
H     -3.3419     14.6834     -0.1398
H     -2.8323      5.2012      1.8576
C      7.4787      5.2845      1.2246
H     -0.3110      3.2857      3.4887
O      7.4251      7.5533      5.4064
H     -5.3892      8.4466     10.6968
H     21.2343      9.7744     14.5029
H      1.8296      3.1055      0.2593
H      4.8587      5.3415      4.1405
C     13.0495      7.7085     11.5090
H      6.4916      5.2134      7.3506
C     15.7883      6.1334     15.8671
C     -1.4868      4.3893      4.9486
C      0.4228      6.8384      5.4009
H     -7.5518      8.8652      9.6107
H      3.0656      1.6956      4.7693
C      1.4358      5.9146      4.8351
H      2.2508     -0.9244      2.0635
H     17.2051     11.7207     15.8978
H     -2.0766      7.5292      9.2543
C     -5.3868      7.0711      8.0497
C      4.0198      0.6852      8.3749
C      6.2881      8.1510      3.0017
C     -3.1273     10.2221      5.4086
C     -0.1267      6.2473      2.8504
C     -1.5884      6.3616      3.6554
H     -2.6912     10.7840      8.7267
H      0.2276      4.3394      0.3112
H     16.6521      7.8023     14.3578
H      5.7748      4.3032     -1.2293
H     -2.4409      3.5338      6.5310
C      1.6542      1.8275      9.2102
H     -1.4186     11.0217      6.5740
C      0.6598      5.2460      3.5691
C      5.3153      3.3472      2.4246
H      1.7184      4.7286      7.8834
H     16.8233      8.3907     21.2574
C      7.1404      3.6442      9.5711
H     -2.0676     10.2146      1.8810
H      7.4647     -1.7436      6.2423
C      2.1252      6.6951      8.6161
C     -1.5964      5.6101      5.9454
C      2.3752      0.0336      2.7966
C      1.4729      4.9502      5.8675
C      2.2227      6.6089      7.0042
C      1.2251      4.1462      0.2386
H     -0.9214      5.5856      0.9845
H      3.9316      1.4505      2.8110
H     -3.3591      8.9496      9.4919
H      3.1594      0.4997      0.1533
H     -4.5361      7.2289      7.5235
H      7.9411      2.4539      7.9714
H     -3.0224     10.9702      4.7420
C     -4.0668     12.1802      0.5495
H      5.8368      1.0635      4.1167
C     -0.0784      9.1123      5.0476
C     -4.3389      7.2747      9.1888
H      4.5300      5.6126     -1.1346
H     -3.1770      9.4484      2.8574
C      8.2703     -1.5753      8.4931
H     -2.6064      3.1235      2.3007
H     -4.2596     10.1669      5.4442
C     -0.0831      7.6181      7.7589
C      0.6549      3.8793      5.4356
O      8.9671      6.0485      4.2857
C     -1.3081      8.2856      5.6424
C      5.9521      0.9555      7.2757
C      4.7395      1.4849      6.4333
C      2.2925      0.9412      6.2616
H      6.8820      1.4156      7.2283
H      4.7387      2.8971      9.3326
H      7.6201     -0.0061     10.0067
H      1.1532      9.6452      6.4488
H      4.6478      0.3511      5.7194
H      0.0152      7.4664      8.8264
C      2.2029      5.1925      7.0641
H     -0.3277      4.1654      1.8785
C      3.9896      5.6504      5.1017
C      3.7884      2.8472      9.3865
H      0.6329      6.1089     -0.3213
C     -5.0547      7.2457     10.4583
H      2.8495      3.1022     10.7272
H     11.6239      6.0768     11.9845
C      4.4498      3.3104      4.4719
C     17.5531      9.6254     18.3280
C      6.0439     -0.8289      9.0240
C     -5.7617      9.3188      6.9432
C      5.7231      4.5058      7.6096
C      5.5030      0.5964      8.6334
H     -1.6860      3.1376      7.7863
H      8.6185      9.0015     12.0748
H      6.2497     -1.1124      9.9592
H     10.0553      4.9871     -0.1844
C     14.6098     10.0055     14.4033
H      3.5240      4.6542     10.6228
H     -1.7289      9.4989      3.3086
