289

C      6.9476     -4.1693     13.8545
N     -1.8941     10.4982      1.1381
C      3.8150      1.4003     20.1847
C      2.2902      2.3671      2.1812
H      0.8903      1.0367     22.0424
C      7.9168      5.0824     15.6431
H     -2.8844      7.0749      2.1728
C      7.7492      3.6428     15.7817
C      3.2575      4.2268     18.6604
C      6.7528     -2.7180     11.5089
C      3.4061      7.3400     19.8018
C      6.2287      1.8502     17.0821
C     -6.3869      9.4300      8.5891
C      0.8500      8.7292     13.6746
C     -3.5687     11.9091     -0.0685
C     -4.3875     14.2612      0.6915
N      0.4291      2.5517     18.6428
H      7.6715     -3.3328     11.6299
C      0.7752      6.3152      0.7011
O     -0.8547      2.5374      0.6265
C      3.2829      4.2973     20.1635
H      0.2680      7.4161     10.8563
H     -5.6283     14.7574      0.9927
C      2.7730      6.2679     17.3717
C      3.6556     -2.4294     16.4122
H     -1.7792      2.4623     19.0823
H     -8.4095      5.5972     13.9677
C      4.0033     -3.7144     16.1171
H     -8.0109      7.1938      9.0312
H      6.6134     -1.6859     11.2271
H     -9.0440      5.2296      8.6783
H     -0.1966      5.5526     19.7437
H      6.1711      1.3126     22.6741
C      3.3274      2.8898     20.6807
H     -3.4692     11.7895     -1.9862
H      6.9022      1.0967     17.6764
C     -5.2972     12.2688      8.8874
C     -3.2402     11.1214     -1.2552
C     -6.5852      5.8869     10.0922
H    -11.3459     12.0036      8.9198
H      1.0446      6.8100      9.4872
C      6.5132      3.1205     16.3426
H     -7.2051      3.2292      7.5677
H     -8.9336     11.3170      9.2266
H      2.2344      5.5890      9.5434
C      4.0611     -1.9746     17.6467
C     -2.9221      8.7735      4.9730
O      2.0246      8.6696     18.1268
C     -1.7344      7.9611      6.9779
C     -4.0666      8.0746     12.0545
C      7.8288     -5.3753     12.9990
C     -6.2762      6.8468     12.3013
H      5.7309      4.0854      1.8896
H     -6.6393      3.8401     12.0462
H      4.5202     -2.8677     14.3883
H      0.5079     -1.1636     18.1438
H     -4.6348      7.1375      8.9185
C     -4.8655      2.6406      8.9385
H      0.6573      0.9354      1.5679
C     -5.7021      6.2064     11.1158
C      8.2765      5.8390     16.6682
H      8.1019      7.8541     15.4077
C     -1.1089      6.6799     18.0080
H      3.7090      8.5639     21.7512
H      3.1712     -1.5660     15.9628
H      3.5555      6.6050      2.3381
H      3.2752      4.7668     23.2356
H      2.9896      5.3144      0.6979
C     -3.2051     11.6453      7.3693
C     -6.3211      4.9209      9.1790
C      3.0238      7.5989     17.9556
C     -3.1345     14.8072      0.5530
C     -7.2196      4.3823     12.6548
C      4.7966     -3.9165     14.9772
H     -3.5726      8.2171      5.5449
H      8.0608      8.1396     17.2220
H      3.5289      0.5482     23.2731
H      4.6825     -0.2996     18.5224
C     -0.2626      2.7511     21.0343
H      7.8623     -3.3817     15.5014
C      0.3895      8.6590     12.0594
C      1.8779      2.3925     20.8171
H     -2.1946      6.3398     10.9057
H     -1.4292     10.7165     -2.0717
C     -0.4871      6.3377      1.4593
H     -7.1529      7.3993     12.4635
H     -1.7919      2.3451     17.4720
H      5.8289      3.6182     18.1940
H     -5.7278      6.5120      7.5025
C     -2.5869      7.6490     12.4853
O      2.5648     10.4512     14.1600
C     -5.5817      8.7968      7.7470
C      3.9458      8.4413     20.5612
C      3.3565      1.3779     22.4421
C      3.2704      0.3969     17.4377
H      8.1755     -2.2743     13.9229
H      6.9074      0.6301     19.5770
H     -2.0631      5.4730     19.5468
H     -8.7022      6.1253      9.8355
C      4.0319      3.5558      3.3985
C     -1.9125      8.4080      0.5293
C     -1.4733      6.8654     11.5567
H     -4.2329      1.7391      9.1327
C      5.3489      2.4772     18.2286
H    -10.8177     11.3285      7.3852
H      5.1339     -0.1292     16.6043
C    -10.5507     12.0253      8.2444
C     -8.3348     11.0254      7.4452
C     -2.0795      5.1422     16.7518
C      3.8933      9.7381     19.7604
C      2.7192      3.5632      2.6347
C     -7.7841      6.6590     10.0251
H    -11.0731     13.0889      7.9955
H      2.5707      7.3562      0.6949
H     -0.0599     11.6089     13.9036
H      7.4130      7.1100     19.7157
H     -2.6947     11.9087      0.5212
H      1.6840      4.3321     -0.9899
O      5.6406      6.8155     19.5042
C      0.7048      8.2306     17.6882
H     -7.8599     11.6811      6.5198
C     -2.7572      8.6283      3.5316
C     -2.0753      7.4118      2.7163
H     -4.3423     10.2786      8.5017
H      8.7023      3.2000     15.4108
C     -2.7879      7.5433      7.6718
H     -2.4249     15.4606      1.1813
H      1.8720      3.0312     16.9803
H     -1.3209     11.6999     -0.4081
H     -8.0309      5.7058     11.6292
C      2.4168      0.2412     14.9148
C     -0.0770      8.6892     14.9158
O     -8.3858      4.7008     11.8315
O     -4.8160      4.0538     10.9002
C     -0.2200      2.8880      1.6448
C     -0.4477      0.4590      1.0629
C      0.0498      4.0283     16.9854
C     -5.8088     11.0570      7.0465
H     -3.7080     10.1742     -1.3745
H      2.5127      9.9161     19.6627
H     -0.9997     10.1004      4.5937
H     -1.2097      8.3809     10.5912
O     -0.2169      9.8990      6.3004
C     -6.8909     10.8829      8.0041
C      0.7165      7.0777      6.9651
C      1.6308      7.6365      1.0143
H      2.7995      8.6297      2.9412
C      0.4010      7.7946     16.0148
H     -4.6249     13.2176      8.3481
C      1.8628      0.0839     17.2006
C      0.7345      2.5656     20.0937
C     -2.6806     11.0078      6.2706
C     -2.0616      3.1427     18.2154
C      4.4486     -0.5364     17.5481
C      2.9373      3.7301     23.2103
C      0.9591      2.0634      2.1496
C     -1.2565      7.7296      1.6477
C     -9.0335     12.0630      8.4216
N      1.3234     -0.4662     18.2735
C      2.6190      0.4317     13.3767
O     -7.4813      6.0752     14.2758
C     -3.0956      6.5260     13.4490
C     -2.5090      4.1590     15.8522
C     -2.6867      7.7784      9.1741
H     -4.6884      3.1245      7.9907
H      1.9417      1.1185     18.9563
H     -5.1490      9.3413      5.4856
C     -1.8418      9.8600      0.1546
H     -8.1956      7.1874     11.0162
H      2.9368      7.3294      8.9154
H      1.7529      8.2339     10.5578
H      2.3797     -0.7071     13.0369
H      0.3491      2.6510     21.8628
C      2.1702      7.6440      2.5367
H      2.2250      1.4814     12.9732
C      1.5057      8.8127     11.3904
C      6.4794     -2.7436     13.0590
H     -4.7239      5.8074     11.2556
C     -1.7710     10.7269     -1.0042
H      1.4564     -1.3468     18.8444
C      4.1579      8.4140     17.4800
C      7.9841      7.3113     16.4025
C      8.1828     -3.3312     14.2959
C      6.1645     -4.5295     15.0062
C     -8.6790      6.2168      6.6508
C      2.1164      4.9731      2.5925
C     -6.5682      5.5622     13.2550
C      5.5670      7.8134     17.4232
C     -4.3936      6.4702     13.5850
H      2.2675      9.6433     11.7639
C     -8.5023      5.2100      7.6813
O      0.3382     11.0590     13.2396
C      1.7115      5.0809      1.0315
H     -3.4871      8.3133      7.3690
C      6.1360      7.3244     18.4622
H      0.2998      1.8184     18.0046
H     -3.7302     15.6849     -0.1347
H     -3.0504      4.5197     14.7838
C     -5.2785      5.4918     14.2437
H     -0.4993      3.1736     16.1784
O      7.4287      7.1030     18.5453
H     -5.5076      8.2701     10.7982
H      9.2161     -3.7413     14.0805
H      1.7829      3.2626     -0.1403
H     -8.2666      5.4990      3.9927
C     -0.6003      7.8380     11.2217
H     -6.5344      4.8176      7.0708
O     -1.5281      0.6032      1.6527
C      2.6964      6.2782      2.8790
C     -1.1350      4.3055     17.9337
C      0.4467      6.9416     18.3069
H     -6.8240      8.7807      9.3523
H      3.5342      2.0051      4.9556
C      1.4322      5.7091     17.7379
H      0.7888     -0.9871     15.6080
C     -5.5443      7.3388      8.2544
C      4.3506      0.6006     21.4574
C      6.3106      7.6941     16.1733
C     -3.4115     10.0256      5.4537
C     -0.0901      6.2061      2.9270
C     -1.4008      6.3816     16.5151
H     -2.5039     12.0618      8.1577
H     -0.1582      3.9647     -0.3097
H      4.0518     -4.5251     14.2511
H     -7.4636      3.5341     13.3617
H     -2.9393      3.6931     18.3317
C      1.9851      1.4046     21.7360
C      0.8263      5.0691      3.5244
C      5.3506      3.9513      2.9415
H      0.8287      4.2747      7.4708
H      4.9484      8.1021     20.2837
C     -5.3817      3.6676      9.7437
H     -1.7259     11.5419      1.1795
H     -5.7717     11.8345      6.3671
C      2.0346      6.6922      9.1182
C     -1.0581      5.3815     18.9617
C      1.6322     -0.3632     15.8559
C      1.7316      4.5744     18.6996
C      1.6854      6.3221      7.7417
C      1.1349      4.1860     -0.0082
H     -1.1698      5.3143      0.9797
H      3.4255      0.0499     15.0434
H     -4.1537      9.0104      8.8101
H      3.5534      0.6209     13.1365
H     -6.5477      7.1706      8.8723
H     -5.7582      2.0826      8.5310
H     -3.9574     10.3865      4.4062
C     -4.4926     12.8785     -0.0101
H      5.7919      0.9720     16.2814
C     -0.5590      9.1438      5.2120
C     -3.5266      8.7636      9.6467
H     -3.8061      8.5589      3.1700
C     -4.6718     11.2441      7.9254
H     -4.2028      9.9588      6.0975
C     -0.3556      7.6315      7.6503
C      1.2009      3.3102     17.9834
O      8.7789      5.6638     17.7902
C     -1.6990      8.1522      5.5764
C      6.1359      1.1674     20.1706
C      5.1172      1.5662     19.3590
C      2.8552      0.6743     19.1406
H      4.9470      2.8687     22.1548
H     -4.9919     11.8219      9.6988
H      0.1041      9.3381      7.1337
H      3.4273      1.4858     16.6835
H     -0.1989      7.7426      8.7957
C      1.8557      4.9157      7.1627
H     -0.3241      3.7715      2.1050
C     -9.0291      5.5036      5.0801
C      3.7195      2.7875     22.3776
H     -5.4123     12.4231     -0.2410
H      0.6206      6.6717     -0.3170
C     -4.4632      8.3844     10.7974
H      3.0136      3.7419     24.2212
H     -5.3857      5.2988      8.7191
H     -0.9553      6.1051     12.0792
C      3.9250      2.9282      4.9913
C      4.6265      9.6979     18.4538
C     -6.6968     12.2343      9.2671
C     -5.6410      9.6239      6.5481
C     -7.2390      4.2700      7.9236
C      5.6860      0.5255     21.6451
H     -1.2715      3.1086     20.6982
H      6.8161     -1.9251     13.8546
H     -7.2118     12.2567     10.2104
H     -2.3362      5.8391     13.5527
C      1.4724     10.0912     13.8593
H      1.8657      3.2188     23.2007
H     -2.2618      9.6412      2.8940
