7

H      0.4032      7.0232     12.0171
C      0.1797      9.0133     11.9727
H      0.7279      8.1206     10.3258
H      1.1985     10.2165     10.2706
C      0.9897      9.9148     11.3406
H      1.0223     10.9188     12.0175
C      0.0801      7.7038     11.2292
7

H     -0.1535      6.9227     12.2739
C      0.1238      8.9549     11.7737
H      0.4860      7.5004     10.2976
H      0.8777      9.8953     10.1424
C      1.0429      9.8993     11.2861
H      0.9457     11.0181     11.6147
C     -0.1066      7.5115     11.3445
7

H      0.4854      6.8413     11.9631
C      0.1407      8.9292     11.7956
H     -0.1429      7.4536     10.3158
H      1.0256      9.9871     10.1519
C      1.0835      9.7435     11.1845
H      1.0016     10.8019     11.7359
C     -0.1712      7.6039     11.3301
7

H      0.4210      6.9859     12.0779
C      0.1742      8.8430     11.6367
H      0.0827      7.8578     10.3161
H      1.3794      9.5153      9.9938
C      1.0046      9.6565     11.1080
H      1.2692     10.6928     11.5387
C     -0.3214      7.5912     11.3979
7

H      0.5739      7.0591     11.7233
C      0.2284      8.9205     11.7497
H     -0.5833      7.6431     10.4187
H      1.4435      9.7914      9.9046
C      1.0056      9.7628     10.9907
H      1.5451     10.7199     11.5457
C     -0.3176      7.6479     11.3388
7

H      0.3660      7.1109     11.7518
C      0.1962      8.9694     11.7192
H     -0.8241      7.5195     10.2731
H      1.6140      9.4153     10.0323
C      1.0676      9.8573     10.9625
H      1.6532     10.6025     11.4363
C     -0.3304      7.6026     11.2570
7

C      9.7262      0.0257      0.7328
H     10.0371     -0.7404      1.6180
C      9.4095      1.4729      0.8763
H      9.9401      1.7812      1.9162
H      9.4842      2.2316      0.2339
C      9.1882     -0.6425     -0.3101
H      8.6618     -0.2535     -1.0533
7

C      9.7532      0.0696      0.6455
H     10.0959     -0.4485      1.6166
C      9.3731      1.3930      0.9600
H      9.6641      1.7853      1.8987
H      9.2197      2.2830      0.3684
C      9.1534     -0.6427     -0.3391
H      8.3541     -0.2729     -0.8080
7

C      9.6008     -0.0408      0.8922
H     10.2427     -0.2120      1.7101
C      9.2994      1.4985      0.9867
H      9.4470     -1.8439      0.3074
H      9.8573      1.9930      1.7958
C      9.1813     -0.7816     -0.1379
H      8.7243     -0.3616     -1.0911
7

C      9.7095      0.0681      0.7791
H     10.5085     -0.1125      1.5653
C      9.3605      1.4870      0.9183
H      9.3444     -1.8724      0.0769
H      9.9010      2.1840      1.5244
C      9.0430     -0.8261     -0.0844
H      8.2360     -0.1513     -0.8318
7

C      9.5683      0.0278      0.8882
H     10.5913     -0.2447      1.0525
C      9.2415      1.4944      0.7223
H      9.3104     -1.6699     -0.0782
H      9.9934      1.8342      1.5041
C      9.0655     -0.7266     -0.0748
H      8.1717     -1.0136     -0.7270
7

C      9.9502      0.7331      0.7517
C      9.2299      1.9569      0.3649
H      8.2910     -0.4724     -0.2915
H      9.4999      2.9469      1.0408
H      8.4415      1.9167     -0.5630
C      9.3847     -0.5545      0.0991
H      9.3631     -1.3682      0.6734
7

C      9.9329      0.6523      0.7253
C      9.3414      1.8726      0.3499
H      8.2967     -0.4472     -0.1909
H      9.6986      2.6926      1.0366
H      8.4893      1.7035     -0.4409
C      9.4032     -0.6115      0.0980
H      8.8412     -1.8016      0.2420
7

C      9.5757      0.6210      0.2765
C      9.3565      1.9767      0.2229
H      7.9123     -0.2440     -0.7968
H      9.5776     -0.8872     -0.5811
H     10.0014      2.6568      0.6511
H      8.5861      2.9030      0.0846
C      8.7489     -0.4285     -0.1143
7

C      9.6244      0.6820      0.3552
C      9.3224      2.0247      0.2722
H      7.8555     -0.0523     -0.6813
H      9.7506     -0.7326     -0.3683
H     10.1369      2.5704      0.8199
H      8.6197      2.8274      0.0381
C      8.7126     -0.4199     -0.1084
7

C      9.5375      0.5909      0.6661
H     10.4410      0.7621      1.0915
C      8.7336      1.4762     -0.0360
H      8.8787     -0.7133     -1.0916
H     10.0636     -1.2289     -0.1904
H      8.3292      2.6442      0.1533
C      9.1464     -0.6694     -0.0133
7

C      9.4036      0.7465      0.7869
H     10.4348      1.0578      1.1098
C      8.8216      1.5505      0.1129
H      8.6841     -0.7422     -1.0846
H     10.0835     -1.2864     -0.2221
H      8.7959      2.8033      0.0878
C      9.1782     -0.7688     -0.0797
7

C      9.3832      0.7566      0.3666
H     10.2803      1.1860     -0.1324
C      8.7801      1.8463      0.5888
H      8.2807     -0.3570     -0.9692
H      9.5752     -1.2928     -0.4917
C      8.9507     -0.5752     -0.1544
H      8.2375     -1.0713      0.5432
7

C      9.5670      0.6360      0.3247
H     10.3326      1.1782     -0.2933
C      8.9055      1.8326      0.5553
H      8.1166     -0.2441     -0.9689
H      9.5011     -1.0201     -0.5673
C      8.8049     -0.3824     -0.2213
H      8.2517     -0.8851      0.4779
7

C      9.7766      0.6902      0.2003
H     10.8029      0.5450     -0.3105
C      9.2590      1.8329      0.5669
H      8.1140     -0.2571     -0.8146
H      9.0805     -1.3885     -0.3678
C      8.6855     -0.6030      0.0341
H      8.1975     -0.8717      0.9754
7

C      9.6528      0.5594      0.2168
H     10.6461      0.5684     -0.1299
C      9.3602      2.0323      0.7139
H      7.8910      0.2050     -0.3524
H      9.2277     -1.3867     -0.3267
C      8.7176     -0.5682      0.1589
H      8.2496     -1.0379      1.0657
7

C      9.8196      0.1582      0.4160
H     10.8846     -0.1151      0.4921
C      9.3767      1.3499      0.6937
H      8.4469     -0.9897     -0.9001
H      9.3090     -2.0068     -0.0733
H      8.3068      0.8443      0.8599
C      9.0432     -0.9947      0.2975
7

C      9.7891      0.2072      0.3596
H     10.8122      0.0117      0.3582
C      9.3618      1.4012      0.7134
H      9.5064     -1.5762     -0.6926
H      8.3237      0.7808      0.9485
C      9.1186     -0.9498      0.2897
H      8.0050     -0.7973      0.4955
7

C     10.1016      0.2148      0.3220
H     11.1808      0.4748      0.0667
C      9.5146      1.2823      0.9188
H      9.0338     -0.8862     -1.2765
H      8.6577      0.9479      1.4760
C      9.2183     -0.9393     -0.1075
H      8.6688     -0.9868      0.9905
7

C     10.2681      0.2092      0.5875
H     11.0275      0.5175     -0.1619
C      9.5501      1.3124      0.9982
H      9.0785     -1.0454     -1.1259
H      8.6495      0.9033      1.3384
C      9.3473     -0.8883     -0.0628
H      8.4781     -1.1886      0.6453
7

C     10.1769      0.2295      0.4619
H     11.0833      0.3815     -0.1648
C      9.4857      1.2878      0.9416
H      9.1745     -1.2282     -0.8993
H      8.3233      1.2394      1.1054
C      9.3611     -0.8310      0.0210
H      8.4141     -1.0438      0.4262
7

C     10.1790      0.1805      0.4332
H     11.2351      0.5176      0.5289
C      9.4099      1.1656      0.9055
H      9.2538     -1.2372     -0.8479
H      8.3829      1.2755      0.8335
C      9.3351     -0.8949      0.1173
H      8.4742     -0.8491      0.3861
7

C     10.2245      0.1647      0.6307
H     11.3299      0.1743      0.4154
C      9.4113      1.2527      0.7815
H      9.3424     -0.9883     -0.9613
H      8.5250      0.6358      1.2450
C      9.3838     -1.0540      0.1093
H      8.5522     -0.9801      0.5466
7

C     10.2504      0.1442      0.6750
H     11.3589      0.0962      0.6688
C      9.3924      1.0767      0.8587
H      9.3767     -0.8417     -0.8376
H      8.4269      0.6548      0.5632
C      9.4779     -1.0344      0.1850
H      8.3302     -1.1213      0.3574
7

C     10.2817      0.2417      0.7464
H     11.2756      0.5287      0.6206
C      9.3291      1.1273      0.8482
H      9.4770     -1.4658     -0.9630
H      8.2507      1.0589      0.6824
C      9.4828     -1.0370      0.1188
H      8.8264     -1.5974      0.9191
7

C     10.0430     12.9982      0.6535
H     11.0821     12.8826      0.8105
C      9.3027     14.1224      0.8443
H      8.9639     11.5409     -1.0114
H      8.4153     13.4827      0.6298
C      9.3481     11.8120     -0.1040
H      8.5975     11.3732      0.3398
7

C     10.1252     12.9591      0.5318
H     11.2101     12.8406      0.3299
C      9.4065     14.0149      0.7423
H      9.1007     12.0381     -1.2123
H      8.2646     13.4095      0.8795
C      9.5170     11.6374     -0.0865
H      8.4857     11.5100      0.4122
7

C     10.2495     12.9808      0.6337
H     11.2650     13.2390      0.1261
C      9.3293     13.9205      0.8063
H      9.3868     11.4708     -1.2203
H      8.3949     13.6734      0.8101
C      9.5290     11.6899     -0.0884
H      8.3781     11.6064      0.1608
7

C     10.0585      0.1182      0.5261
C      9.2343      1.1758      0.8358
H      8.9929     -0.8121     -1.0638
H      8.4554      0.8943      1.4081
H      9.6863      2.2138      0.9876
C      8.9778     -0.9311      0.0668
H      8.1606     -0.4723      0.4005
7

C     10.0316      0.0013      0.3686
C      9.2375      1.1980      0.7601
H      9.4535     -0.9657     -1.0021
H      8.5559      0.8208      1.3637
H      9.3620      2.3661      0.9900
C      9.0519     -0.9354      0.0898
H      8.2008      0.0063      0.0850
7

C     10.0497     -0.0063      0.4623
C      9.2240      1.2399      0.7803
H      9.4465     -1.0989     -1.1225
H      8.4272      0.9026      1.4886
H      9.4445      2.2593      0.9100
C      9.0679     -0.9824      0.0002
H      8.1578     -0.3908     -0.3389
7

C     10.1187     12.5832      0.4287
C      9.5798     13.8946      0.5201
H      9.5371     11.0602     -0.9726
H      8.5434     13.5350      0.2767
H      9.1698     14.8671      1.0023
C      9.0946     11.9578     -0.4155
H      8.5651     12.2056     -1.3960
7

C     10.0227     12.5202      0.2323
C      9.5157     13.6407      0.8763
H      9.3486     10.8603     -1.0292
H      8.4283     13.7580      0.4988
H     10.2744     14.3177      1.1775
C      9.1510     11.7938     -0.4852
H      8.6488     12.1891     -1.5828
