   96
 8.60913085937500e+00  8.60913090000000e+00  8.60913090000000e+00
 O  1.56937472826689e+00  6.72205158621003e+00  6.72214932740563e+00     1.24473433158267e+00  3.03353852937309e-01  1.50202926701394e-01 
 H  1.55430208352096e+00  7.14375473426444e+00  1.33633972201752e+00    -2.04286198778379e-01 -3.21892832081737e+00 -1.76174639485179e+00 
 H  1.91284044462539e+00  5.28136668716229e+00  6.70508569525637e+00    -2.11729006243545e+00 -5.54960512143143e-01 -2.77115125243432e+00 
 O  8.48342351387119e+00  8.26569465596099e+00  5.56057374166213e+00     1.48109708065483e-02  1.23034097222233e-01  1.62938202604637e-01 
 H  2.23438053632404e+00  3.68964045951814e+00  7.27956340807893e+00    -2.63974679486211e-01 -2.51549526961330e+00 -8.12050093020688e-01 
 H  7.68342602800257e+00  5.18963692634753e+00  5.79285968669464e+00    -1.22910095604813e+00  1.52043789921407e+00 -1.81867690958606e+00 
 O  1.44494855539588e+00  8.28435207164325e+00  2.96724713225812e+00    -2.07649504074879e-01 -7.83737131498771e-01 -3.76722553920528e-01 
 H  7.96514443467102e-01  1.76430809966092e+00  6.84242023496416e+00     9.13010035825911e-01  1.77628822352352e+00  1.05723743915499e+00 
 H  4.16734611277049e+00  7.15542920514694e+00  6.77208599072630e+00    -2.10446760253435e+00  1.13788598257681e+00  1.24991535123018e+00 
 O  1.23975049412028e+00  2.39608840859190e+00  4.54537783048438e+00    -5.88659248276300e-02  1.68271160882511e-02 -9.58910642301409e-01 
 H  3.65849685624260e+00  4.02815674099087e+00  8.58526122046437e+00    -1.06594915391558e+00  2.77669969647355e+00 -1.84091731654704e+00 
 H  2.32635407816959e+00  8.31246110802711e+00  6.60042329289241e+00     4.02909723850747e-01 -8.53115951732442e-01 -1.50651393711632e-01 
 O  2.20771336221432e+00  4.61983467057087e+00  7.45484825436514e+00    -1.14415925226846e-01  2.42678961625916e-01  2.76619898084763e-01 
 H  4.01286745666350e+00  3.46517504038937e+00  3.87478557936729e+00     1.11648296336019e+00 -1.00320841011735e+00 -4.13969122377105e+00 
 H  7.49849295973317e-01  5.86241786272638e+00  2.03081843790763e-01     4.30735720905692e+00  1.99806509267507e+00  1.39733581298166e-01 
 O  8.09689131373437e+00  1.43320849728145e+00  7.25189455164470e+00    -8.58663472602929e-03  1.19127714215907e-01  5.88912964677252e-01 
 H  1.35127768169258e-02  4.25972042893678e+00  9.56084930388181e-01    -2.62849793951709e+00  1.93972860452104e+00 -1.35172788399077e+00 
 H  6.80862974010708e+00  3.44296896392656e+00  6.56148793720239e+00    -2.63934661422269e+00  1.53621457424174e+00  3.99415239690943e-01 
 O  9.76153723325226e-01  5.63840592585581e+00  3.56612965081339e+00    -3.07969523055560e-01 -5.88297243103024e-01 -4.55934808845971e-02 
 H  4.83387759124519e+00  2.37403190321334e-01  6.48687481571761e+00     2.43913075163441e+00 -2.05965440685919e+00 -8.78302881950886e-02 
 H  4.29495061419143e+00  6.43464192981589e+00  1.16516781020543e+00     3.41788914381643e+00  6.13113854649007e-01  1.37343355640206e+00 
 O  3.47311065199749e+00  6.31822472344149e+00  1.60805275504767e+00    -4.31025888419699e-01 -1.01269384727892e-01  9.99903995211120e-01 
 H  4.31707148647166e-01  3.81885913955192e+00  6.53769946739991e+00    -2.13624301447741e+00 -1.37212656462528e+00 -2.56140108816244e+00 
 H  5.94952475086928e+00  5.88430703623205e+00  4.20544654568854e+00     1.84075644336894e+00  5.00185886789949e-01  2.17184736202050e+00 
 O  6.05050176620605e+00  2.63205617471049e+00  1.25108723359381e+00     2.26346298294701e-01 -3.77000151027981e-01  3.45761958021129e-01 
 H  5.11373259018248e+00  4.27021129232764e+00  2.62033525565683e+00    -4.11705213129888e-01 -4.44551076023085e+00  2.05174756737222e+00 
 H  1.18562189679689e+00  7.84582210442793e+00  3.74798299267111e+00     8.62753843414189e-01  2.73892621426644e+00  1.26328206665131e+00 
 O  3.48469867130350e+00  3.29094991197818e+00  5.56308865558373e+00     2.28308384747068e-01 -6.50353411411888e-01 -5.97376636714115e-01 
 H  7.83476545558305e+00  7.45833957968898e+00  7.65635700597709e+00    -2.45067724251345e+00 -7.19131797737677e-01 -5.78461678270021e-01 
 H  6.33371579718403e+00  6.28114694772237e+00  5.76372595283665e+00     3.14913885521186e+00 -1.23613940120574e+00  1.50568849066023e+00 
 O  3.32862740356885e+00  2.20594336814441e+00  2.40524868960023e+00     4.52003738090903e-02  1.55176821231158e-01 -2.99146875466221e-01 
 H  8.46932082818647e+00  3.09040900169014e+00  5.39385179071427e+00    -4.05942586149719e-02  6.20387421458826e-01 -7.63241371311292e-01 
 H  6.82302361115927e+00  4.11783947080481e+00  4.63618935139562e-01     2.17811972377478e+00  1.36245257828972e-01  7.60591708634858e-01 
 O  8.60270654548996e+00  1.25223819700401e+00  1.18986513671317e+00     3.20676332164641e-01 -3.19902404720937e-02 -9.22465069340561e-03 
 H  8.49910354069356e+00  8.10944855510135e+00  4.59327910808588e+00     2.84764582518405e+00  1.13642864854988e+00 -2.86130800458125e-01 
 H  5.59349465231941e+00  6.16591033922783e+00  6.95607116747686e+00    -1.43997067627501e+00  1.74311885949796e-01  1.53435645353858e+00 
 O  7.56875283421937e+00  8.27956024887751e+00  2.71113805295046e+00    -2.08433460161040e-01 -6.70803526930735e-02 -3.55658883291148e-01 
 H  1.52928571670527e+00  3.66476582595518e+00  2.36652616925971e-01    -1.72911824619561e-02 -1.24918798977956e+00  6.83500525584951e-02 
 H  8.27447824574271e+00  3.95769072048225e-01  6.10470505033961e+00    -1.59648213392346e+00 -7.16961262573896e-01  2.10749885357558e+00 
 O  5.98767331642143e+00  3.01962331969999e+00  6.00353964728296e+00    -6.53707384667281e-01  1.17945606375184e-02 -3.99026742159469e-01 
 H  4.76472390883033e+00  3.37340259317714e+00  7.56638743618283e+00     2.47405729628065e+00  8.29522682752818e-01 -1.48604014794889e+00 
 H  7.30181789012001e+00  1.88942174833287e+00  7.37596953910965e+00     2.72957539911969e+00  3.37629275158727e-01  1.41241308525567e+00 
 O  1.76356262160842e+00  1.91078514014068e+00  7.30348506338284e+00     1.23748015827255e-01 -7.76406802299185e-02 -5.16875128250187e-01 
 H  3.93710469144741e+00  4.07976958879075e+00  5.24022872851690e+00    -2.82254712423703e+00 -1.68041834176011e+00 -4.17287250349214e-01 
 H  5.93103724653024e+00  3.55461697238099e-01  4.89528243993298e+00    -2.71996142221998e+00  2.52182787239800e+00  1.28307835402739e+00 
 O  7.22541686267887e+00  6.77439728288070e+00  7.92066116852053e+00     1.46842508127426e-01  1.03583496072321e-02  5.86989855889733e-01 
 H  2.46160516868365e+00  5.96374804875202e+00  1.53417073745155e+00    -1.10766781441254e+00  9.68415200268617e-01  8.22488128761810e-01 
 H  8.19086052689278e+00  1.72748778956212e+00  3.07770529136637e-01    -2.64948120828477e+00 -1.65417036655713e-01 -2.04044852490073e+00 
 O  1.04112969015732e+00  6.65226358676505e+00  6.20384645862900e-01    -2.35259475910948e-01  1.44469488497563e-01  2.81487702183585e-02 
 H  5.08320004352832e+00  2.96679390148075e+00  5.60934470060037e+00     2.52316345017156e-01  5.38886522634250e-01 -2.46407554861648e-01 
 H  6.75967143933583e+00  2.13366590374491e+00  1.59349779758680e+00    -8.75662804330369e-01  1.17026416910756e+00  1.37616788856509e-01 
 O  5.73569289385607e+00  4.25815609950406e-01  6.91202020065674e+00     2.75665257661382e-01  2.71158803537880e-01 -4.62771882558245e-01 
 H  4.56410639575449e+00  3.51649802554173e-01  4.74127983493400e-01    -1.17998928625396e+00  1.93378529666226e+00  1.92625028327860e-01 
 H  2.66195347385402e+00  1.91312879387023e+00  1.68057118740497e+00    -1.40679617626248e+00 -1.01923941902101e+00  2.61209723159061e-01 
 O  3.27608731449590e+00  6.41222528759361e+00  4.44887557727402e+00    -4.70846675587101e-01  2.21540591527530e-02 -8.46945239875511e-01 
 H  1.73207422847218e+00  4.15407112922094e+00  1.87273462097049e+00     4.50767294068902e-01  1.20171375087177e+00  1.05147959454478e+00 
 H  2.90891961926146e+00  2.69980661106440e+00  6.00556007272174e+00    -1.35393807658899e+00 -2.60643591894659e-01  9.84323171293830e-02 
 O  4.80856130757124e+00  3.91363469101512e+00  3.46806475251572e+00    -7.20913564469647e-02  9.40529248595724e-01  7.18726621667634e-01 
 H  4.46485789902746e+00  5.05532044459333e+00  7.71907161095499e+00     3.44449383137106e-01 -7.78805981334983e-01  3.60086682571594e+00 
 H  7.50933887964739e+00  2.79669470418360e+00  2.63240308917412e+00    -1.83592218016865e+00 -2.56402247367218e+00 -3.06376697271619e-01 
 O  5.12386348830368e+00  8.18497147367823e+00  7.37609362485700e-01    -2.38190656302837e-02 -7.07361596848190e-02  9.55828587463642e-01 
 H  1.36292622374850e+00  6.21294720318005e+00  7.56231803937661e+00     1.30056817331443e-01  1.70340345345933e+00 -5.95814534629464e-01 
 H  3.65147667812435e+00  6.05676277017280e+00  5.21290944706769e+00    -5.33510212367855e-01  2.78425315777149e-01  5.80714948557542e-01 
 O  4.67337948426854e+00  6.36866030420658e+00  6.53238301802330e+00     4.99299355051949e-01  2.54646035870338e-01  2.58680097087926e-01 
 H  2.15104734133347e+00  1.80515760221829e-01  3.05212648327872e+00    -1.78175406757967e+00 -1.13662422410847e+00 -5.67326668190208e-01 
 H  5.81664724757039e+00  7.78227704454689e+00  1.38763703111110e+00     2.27474386593510e-01  1.39789741969500e+00 -2.39698310227742e+00 
 O  3.16567297662084e+00  8.58670223125278e+00  6.21228703330198e+00     2.49559398977413e-01  1.40509904250661e-01  4.71762538180625e-01 
 H  3.98519781594758e-01  4.32183838572248e-01  1.55918055462282e+00    -1.98657935825187e+00  1.38167886429878e+00 -2.35558850929674e+00 
 H  7.20984124284236e+00  6.04024022711638e+00  1.09346398740628e-01     7.95535659207418e-01  9.28322645054423e-01 -1.26773483916973e+00 
 O  7.75681498433116e+00  4.34734722576533e+00  4.48283671871743e-01     4.29874910307952e-01  3.74466240806845e-01  1.60451412464200e-01 
 H  7.40835766550019e-01  3.07083386035509e+00  4.16331432324562e+00    -1.69459566255800e-01  2.66919576905434e+00  1.31763680403871e+00 
 H  6.66349865107603e+00  8.37242127792841e+00  3.09607354826939e+00    -7.22988970629469e-01 -9.67432848076962e-02 -4.10926877644777e-01 
 O  6.86657216588234e+00  5.58123836151101e+00  5.36761486562755e+00     7.42554837537504e-02 -1.06252837617025e-01  1.38174536660735e-01 
 H  2.96540997686144e+00  8.00372996835803e+00  5.46526099921497e+00    -1.17094620304690e+00  8.15406366823548e-01  3.39977863931854e+00 
 H  2.05218853750138e-01  5.09059029619193e+00  3.27419382336092e+00    -1.52096499819232e+00  6.06082996779052e-01  7.67296183742104e-01 
 O  4.66973995432752e+00  4.16643914492284e+00  8.15246696550481e+00     3.36798694425315e-01  1.59845351985622e-01 -1.60975800424567e-01 
 H  6.52844847448108e+00  3.39030807814398e-01  7.33378028908759e+00    -2.26494332808398e-01 -1.48327496591868e+00 -1.76926522527453e+00 
 H  6.81240182390912e+00  3.07193076472876e+00  4.40219913466882e+00     4.92562788086433e-01 -1.66802882546538e+00 -3.03726689011939e-01 
 O  5.43512623523078e+00  4.53884045426596e-01  4.03951250304551e+00     3.25265087707554e-01  4.78365786994954e-01 -5.87418254963204e-01 
 H  7.39924459537828e-01  6.57175155612768e+00  3.44210053520801e+00     2.92675944312746e-01  5.75292469772459e-01  2.30039765738423e+00 
 H  1.90849630228878e+00  1.72608923060338e+00  4.79988821928880e+00    -1.59874982574795e+00 -1.71962066585662e+00 -3.14981332087341e+00 
 O  2.86933620125824e+00  7.80237114858256e-01  2.96334228629399e-01    -2.18945368839441e-01 -1.85732971343652e-01  2.10398406882433e-01 
 H  4.05587946866260e+00  2.87657219346224e+00  2.50484513748692e+00     3.52717620144015e-01  7.97339724956796e-01  2.24780770279701e+00 
 H  5.22971922230985e+00  2.37108776029334e+00  7.38708535511189e-01    -2.70553947556936e+00 -8.33294877999419e-01 -7.48460846434375e-01 
 O  5.62515366113282e+00  6.51772713418162e+00  3.45993959593594e+00     1.03289985954346e-01 -5.38491994987082e-01  2.72099756231441e-01 
 H  7.71366110225688e+00  5.10231279445742e-01  2.05203829339246e+00    -2.25945715018225e-01  2.27894287778255e+00  7.65691227719008e-01 
 H  5.79649651291248e-01  7.05078941824003e+00  6.31535181232429e+00     5.42764393260886e-01 -2.32972632840088e+00 -5.27658481837470e-01 
 O  1.24945353678531e+00  3.64694316214443e+00  1.16001728490715e+00     4.50194199252144e-02  2.07920119744774e-01 -2.23698246122575e-01 
 H  2.58658275067749e+00  1.14931565513496e+00  7.95627606619101e+00    -2.10603576745648e+00  3.63403053999603e+00 -7.65980396163221e-01 
 H  4.55268372116718e+00  9.29501849417084e-01  3.92059300829708e+00     1.24813718953235e+00 -2.14614695185862e+00  6.05130826188746e-01 
 O  8.42732721571383e+00  4.01579395667088e+00  5.83122538758744e+00    -5.25089695186158e-01 -6.25993261238321e-01 -8.25933393588147e-02 
 H  2.31659495336032e+00  5.31842846642285e-01  9.73009351060436e-01     1.09391916995040e+00  5.00415538552684e-01 -5.05526641523112e-01 
 H  2.49939317980416e+00  5.85774731400689e+00  3.98564147264939e+00     1.61385090595206e+00  3.99635873792141e-01 -7.52271270451809e-02 
 O  7.42885710554993e+00  2.95617309254400e+00  3.63121620888606e+00    -8.85067535716971e-02 -1.56500470058107e-01 -1.62892195407236e-01 
 H  4.28893532332258e+00  6.75255465297521e+00  3.62415724632908e+00    -1.15210138086448e+00 -7.02772912826947e-01 -2.08354755859360e+00 
 H  6.29346148937406e+00  6.95499699979243e+00  2.85545820274311e+00    -1.21472736828504e+00 -1.43774579337321e+00  6.09949630032087e-01 
