   96
 8.60913090000000e+00  8.60913090000000e+00  8.60913090000000e+00
 O  1.56937472826387e+00  6.72205158621297e+00  6.72214932740318e+00     1.24473433080104e+00  3.03353853700483e-01  1.50202926065306e-01 
 H  1.55430208351946e+00  7.14375473426457e+00  1.33633972201857e+00    -2.04286199157638e-01 -3.21892832081018e+00 -1.76174639459550e+00 
 H  1.91284044462684e+00  5.28136668716552e+00  6.70508569525552e+00    -2.11729006207306e+00 -5.54960511311146e-01 -2.77115125265387e+00 
 O  8.48342351387428e+00  8.26569465595928e+00  5.56057374166326e+00     1.48109716073934e-02  1.23034096784920e-01  1.62938202893364e-01 
 H  2.23438053632053e+00  3.68964045951522e+00  7.27956340807784e+00    -2.63974680458296e-01 -2.51549527040921e+00 -8.12050093329844e-01 
 H  7.68342602800092e+00  5.18963692635286e+00  5.79285968668965e+00    -1.22910095652316e+00  1.52043790076729e+00 -1.81867691080212e+00 
 O  1.44494855539055e+00  8.28435207164454e+00  2.96724713225535e+00    -2.07649505462500e-01 -7.83737131170258e-01 -3.76722554633547e-01 
 H  7.96514443520833e-01  1.76430809965183e+00  6.84242023498471e+00     9.13010049632326e-01  1.77628822116422e+00  1.05723744431600e+00 
 H  4.16734611277352e+00  7.15542920514658e+00  6.77208599072647e+00    -2.10446760174355e+00  1.13788598248539e+00  1.24991535127558e+00 
 O  1.23975049411620e+00  2.39608840859424e+00  4.54537783048577e+00    -5.88659259056723e-02  1.68271167069273e-02 -9.58910641944171e-01 
 H  3.65849685624667e+00  4.02815674099143e+00  8.58526122046455e+00    -1.06594915285821e+00  2.77669969661813e+00 -1.84091731650069e+00 
 H  2.32635407817411e+00  8.31246110802664e+00  6.60042329289260e+00     4.02909725039969e-01 -8.53115951868660e-01 -1.50651393679568e-01 
 O  2.20771336221335e+00  4.61983467057034e+00  7.45484825436454e+00    -1.14415925475696e-01  2.42678961491430e-01  2.76619897931337e-01 
 H  4.01286745666634e+00  3.46517504038953e+00  3.87478557936705e+00     1.11648296409759e+00 -1.00320841007656e+00 -4.13969122383119e+00 
 H  7.49849295967822e-01  5.86241786272552e+00  2.03081843790365e-01     4.30735720761410e+00  1.99806509242526e+00  1.39733581165704e-01 
 O  8.09689131374682e+00  1.43320849728603e+00  7.25189455164462e+00    -8.58663146942041e-03  1.19127715392895e-01  5.88912964657405e-01 
 H  1.35127766053374e-02  4.25972042892350e+00  9.56084930165204e-01    -2.62849800122161e+00  1.93972860181287e+00 -1.35172794559493e+00 
 H  6.80862974011096e+00  3.44296896392582e+00  6.56148793720475e+00    -2.63934661321338e+00  1.53621457405102e+00  3.99415240321640e-01 
 O  9.76153723324815e-01  5.63840592585550e+00  3.56612965081399e+00    -3.07969523162217e-01 -5.88297243186230e-01 -4.55934807281448e-02 
 H  4.83387759124706e+00  2.37403190321249e-01  6.48687481571754e+00     2.43913075212038e+00 -2.05965440688116e+00 -8.78302882146003e-02 
 H  4.29495061419375e+00  6.43464192981567e+00  1.16516781020554e+00     3.41788914441484e+00  6.13113854593292e-01  1.37343355643194e+00 
 O  3.47311065199722e+00  6.31822472344150e+00  1.60805275504765e+00    -4.31025888490021e-01 -1.01269384723622e-01  9.99903995206261e-01 
 H  4.31707148153647e-01  3.81885913969614e+00  6.53769946679875e+00    -2.13624314536626e+00 -1.37212652504177e+00 -2.56140124870406e+00 
 H  5.94952475087051e+00  5.88430703623259e+00  4.20544654568735e+00     1.84075644369264e+00  5.00185886925319e-01  2.17184736170956e+00 
 O  6.05050176620546e+00  2.63205617471019e+00  1.25108723359391e+00     2.26346298139490e-01 -3.77000151104367e-01  3.45761958047842e-01 
 H  5.11373259018582e+00  4.27021129232778e+00  2.62033525565626e+00    -4.11705212252777e-01 -4.44551076019120e+00  2.05174756722473e+00 
 H  1.18562189677654e+00  7.84582210442456e+00  3.74798299269502e+00     8.62753838069659e-01  2.73892621340265e+00  1.26328207292788e+00 
 O  3.48469867130333e+00  3.29094991197811e+00  5.56308865558379e+00     2.28308384702695e-01 -6.50353411429377e-01 -5.97376636698344e-01 
 H  7.83476545558674e+00  7.45833957968498e+00  7.65635700596243e+00    -2.45067724151598e+00 -7.19131798813357e-01 -5.78461682078402e-01 
 H  6.33371579718628e+00  6.28114694772030e+00  5.76372595283616e+00     3.14913885580755e+00 -1.23613940174738e+00  1.50568849053167e+00 
 O  3.32862740356875e+00  2.20594336814442e+00  2.40524868960020e+00     4.52003737854308e-02  1.55176821234207e-01 -2.99146875472605e-01 
 H  8.46932082818583e+00  3.09040900170217e+00  5.39385179069485e+00    -4.05942590232661e-02  6.20387424435708e-01 -7.63241376778713e-01 
 H  6.82302361112319e+00  4.11783947081100e+00  4.63618935097572e-01     2.17811971440213e+00  1.36245259133098e-01  7.60591698057606e-01 
 O  8.60270654549688e+00  1.25223819698374e+00  1.18986513672209e+00     3.20676333997868e-01 -3.19902459220833e-02 -9.22464828365870e-03 
 H  8.49910354070496e+00  8.10944855509014e+00  4.59327910807047e+00     2.84764582824382e+00  1.13642864561278e+00 -2.86130804452267e-01 
 H  5.59349465232349e+00  6.16591033922727e+00  6.95607116747689e+00    -1.43997067521157e+00  1.74311885806268e-01  1.53435645354014e+00 
 O  7.56875283422371e+00  8.27956024887883e+00  2.71113805294981e+00    -2.08433459036399e-01 -6.70803523593983e-02 -3.55658883453155e-01 
 H  1.52928571669586e+00  3.66476582595658e+00  2.36652616921838e-01    -1.72911848797892e-02 -1.24918798941973e+00  6.83500514849186e-02 
 H  8.27447824575201e+00  3.95769072063616e-01  6.10470505034340e+00    -1.59648213151970e+00 -7.16961258647366e-01  2.10749885450041e+00 
 O  5.98767331642109e+00  3.01962331969994e+00  6.00353964728309e+00    -6.53707384754325e-01  1.17945606230474e-02 -3.99026742126962e-01 
 H  4.76472390883363e+00  3.37340259317748e+00  7.56638743618275e+00     2.47405729714668e+00  8.29522682842927e-01 -1.48604014797071e+00 
 H  7.30181789011694e+00  1.88942174831184e+00  7.37596953911794e+00     2.72957539796373e+00  3.37629269876311e-01  1.41241308743806e+00 
 O  1.76356262159215e+00  1.91078514013740e+00  7.30348506338038e+00     1.23748011610229e-01 -7.76406810779816e-02 -5.16875128874015e-01 
 H  3.93710469145051e+00  4.07976958879082e+00  5.24022872851665e+00    -2.82254712343627e+00 -1.68041834174647e+00 -4.17287250411447e-01 
 H  5.93103724653199e+00  3.55461697237254e-01  4.89528243993338e+00    -2.71996142177056e+00  2.52182787217835e+00  1.28307835412932e+00 
 O  7.22541686268028e+00  6.77439728288095e+00  7.92066116852173e+00     1.46842508491086e-01  1.03583496744889e-02  5.86989856203189e-01 
 H  2.46160516868509e+00  5.96374804875230e+00  1.53417073745149e+00    -1.10766781404907e+00  9.68415200336767e-01  8.22488128743003e-01 
 H  8.19086052689828e+00  1.72748778958668e+00  3.07770529130531e-01    -2.64948120688108e+00 -1.65417030348925e-01 -2.04044852679157e+00 
 O  1.04112969015546e+00  6.65226358676494e+00  6.20384645862151e-01    -2.35259476390344e-01  1.44469488471851e-01  2.81487700263593e-02 
 H  5.08320004353108e+00  2.96679390148129e+00  5.60934470060084e+00     2.52316345742265e-01  5.38886522775683e-01 -2.46407554737124e-01 
 H  6.75967143933607e+00  2.13366590374626e+00  1.59349779758534e+00    -8.75662804267771e-01  1.17026416944416e+00  1.37616788483630e-01 
 O  5.73569289385584e+00  4.25815609950359e-01  6.91202020065676e+00     2.75665257601055e-01  2.71158803525756e-01 -4.62771882553320e-01 
 H  4.56410639575715e+00  3.51649802553939e-01  4.74127983493303e-01    -1.17998928556083e+00  1.93378529660239e+00  1.92625028301785e-01 
 H  2.66195347386159e+00  1.91312879387277e+00  1.68057118740805e+00    -1.40679617425887e+00 -1.01923941834354e+00  2.61209723963312e-01 
 O  3.27608731449568e+00  6.41222528759355e+00  4.44887557727406e+00    -4.70846675644936e-01  2.21540591371224e-02 -8.46945239866416e-01 
 H  1.73207422846595e+00  4.15407112922378e+00  1.87273462096972e+00     4.50767292452896e-01  1.20171375160624e+00  1.05147959433216e+00 
 H  2.90891961926256e+00  2.69980661106470e+00  6.00556007272018e+00    -1.35393807630437e+00 -2.60643591821856e-01  9.84323167234999e-02 
 O  4.80856130757087e+00  3.91363469101507e+00  3.46806475251575e+00    -7.20913565448709e-02  9.40529248584732e-01  7.18726621673593e-01 
 H  4.46485789903015e+00  5.05532044459347e+00  7.71907161095503e+00     3.44449383838537e-01 -7.78805981298312e-01  3.60086682572676e+00 
 H  7.50933887964678e+00  2.79669470418736e+00  2.63240308917483e+00    -1.83592218035504e+00 -2.56402247270781e+00 -3.06376697073864e-01 
 O  5.12386348830337e+00  8.18497147367826e+00  7.37609362485687e-01    -2.38190657088792e-02 -7.07361596778844e-02  9.55828587460150e-01 
 H  1.36292622374496e+00  6.21294720318599e+00  7.56231803937396e+00     1.30056816407175e-01  1.70340345500627e+00 -5.95814535302968e-01 
 H  3.65147667812790e+00  6.05676277017294e+00  5.21290944706728e+00    -5.33510211444010e-01  2.78425315816197e-01  5.80714948446616e-01 
 O  4.67337948426817e+00  6.36866030420660e+00  6.53238301802329e+00     4.99299354956750e-01  2.54646035875852e-01  2.58680097087440e-01 
 H  2.15104734133788e+00  1.80515760223853e-01  3.05212648328158e+00    -1.78175406640957e+00 -1.13662422357707e+00 -5.67326667406100e-01 
 H  5.81664724757193e+00  7.78227704454676e+00  1.38763703111048e+00     2.27474386996472e-01  1.39789741966765e+00 -2.39698310244409e+00 
 O  3.16567297662049e+00  8.58670223125270e+00  6.21228703330199e+00     2.49559398886651e-01  1.40509904229615e-01  4.71762538183616e-01 
 H  3.98519781455297e-01  4.32183838850769e-01  1.55918055453603e+00    -1.98657939527640e+00  1.38167893987856e+00 -2.35558853314773e+00 
 H  7.20984124285447e+00  6.04024022710747e+00  1.09346398741309e-01     7.95535662360985e-01  9.28322642730453e-01 -1.26773483898373e+00 
 O  7.75681498436114e+00  4.34734722575895e+00  4.48283671892749e-01     4.29874918432048e-01  3.74466239161065e-01  1.60451418110019e-01 
 H  7.40835766527574e-01  3.07083386037267e+00  4.16331432328921e+00    -1.69459572034971e-01  2.66919577350177e+00  1.31763681556725e+00 
 H  6.66349865108090e+00  8.37242127792809e+00  3.09607354826681e+00    -7.22988969370818e-01 -9.67432848852021e-02 -4.10926878315927e-01 
 O  6.86657216588287e+00  5.58123836151097e+00  5.36761486562761e+00     7.42554838918284e-02 -1.06252837629268e-01  1.38174536677701e-01 
 H  2.96540997686387e+00  8.00372996835885e+00  5.46526099921434e+00    -1.17094620242460e+00  8.15406367052767e-01  3.39977863918187e+00 
 H  2.05218853749701e-01  5.09059029619630e+00  3.27419382335676e+00    -1.52096499831183e+00  6.06082997922202e-01  7.67296182675349e-01 
 O  4.66973995432707e+00  4.16643914492281e+00  8.15246696550479e+00     3.36798694308072e-01  1.59845351978435e-01 -1.60975800429016e-01 
 H  6.52844847448176e+00  3.39030807816820e-01  7.33378028908767e+00    -2.26494332629034e-01 -1.48327496529104e+00 -1.76926522524882e+00 
 H  6.81240182391244e+00  3.07193076473066e+00  4.40219913466953e+00     4.92562788941729e-01 -1.66802882497752e+00 -3.03726688842443e-01 
 O  5.43512623523046e+00  4.53884045426638e-01  4.03951250304553e+00     3.25265087625821e-01  4.78365787005706e-01 -5.87418254957401e-01 
 H  7.39924459538560e-01  6.57175155613353e+00  3.44210053521657e+00     2.92675944544908e-01  5.75292471339615e-01  2.30039765962785e+00 
 H  1.90849630228336e+00  1.72608923060813e+00  4.79988821928532e+00    -1.59874982713961e+00 -1.71962066462615e+00 -3.14981332178055e+00 
 O  2.86933620125736e+00  7.80237114858445e-01  2.96334228629753e-01    -2.18945369069797e-01 -1.85732971294761e-01  2.10398406976294e-01 
 H  4.05587946866554e+00  2.87657219346272e+00  2.50484513748715e+00     3.52717620907528e-01  7.97339725081348e-01  2.24780770285601e+00 
 H  5.22971922231339e+00  2.37108776029462e+00  7.38708535511424e-01    -2.70553947464916e+00 -8.33294877670735e-01 -7.48460846380142e-01 
 O  5.62515366113261e+00  6.51772713418165e+00  3.45993959593590e+00     1.03289985900389e-01 -5.38491994977379e-01  2.72099756219468e-01 
 H  7.71366110228170e+00  5.10231279446842e-01  2.05203829337688e+00    -2.25945708368625e-01  2.27894287801209e+00  7.65691223513739e-01 
 H  5.79649651290293e-01  7.05078941822154e+00  6.31535181234817e+00     5.42764392995183e-01 -2.32972633323590e+00 -5.27658475660731e-01 
 O  1.24945353677178e+00  3.64694316215043e+00  1.16001728490360e+00     4.50194164969110e-02  2.07920121264944e-01 -2.23698247027898e-01 
 H  2.58658275068022e+00  1.14931565513201e+00  7.95627606619021e+00    -2.10603576674333e+00  3.63403053922004e+00 -7.65980396377510e-01 
 H  4.55268372116947e+00  9.29501849417063e-01  3.92059300829710e+00     1.24813719012680e+00 -2.14614695186201e+00  6.05130826193739e-01 
 O  8.42732721574847e+00  4.01579395665862e+00  5.83122538762184e+00    -5.25089685996475e-01 -6.25993264559331e-01 -8.25933301387031e-02 
 H  2.31659495337667e+00  5.31842846632527e-01  9.73009351061561e-01     1.09391917422536e+00  5.00415536008841e-01 -5.05526641246730e-01 
 H  2.49939317980593e+00  5.85774731400728e+00  3.98564147264911e+00     1.61385090640931e+00  3.99635873891318e-01 -7.52271271158095e-02 
 O  7.42885710555304e+00  2.95617309254272e+00  3.63121620888737e+00    -8.85067527571095e-02 -1.56500470392514e-01 -1.62892195064802e-01 
 H  4.28893532332503e+00  6.75255465297500e+00  3.62415724632894e+00    -1.15210138022563e+00 -7.02772912881325e-01 -2.08354755863008e+00 
 H  6.29346148937701e+00  6.95499699979238e+00  2.85545820274373e+00    -1.21472736752836e+00 -1.43774579339141e+00  6.09949630201232e-01 
