   96
 8.60913085937500e+00  8.60913090000000e+00  8.60913090000000e+00
 O  8.49651359063451e-01  7.40478982976027e+00  8.15998141713890e+00     7.40608987436809e-01 -2.70438576035102e-01  5.31631127785799e-01 
 H  1.14182968030393e+00  5.87869500003467e+00  2.41651993987012e+00     2.85968239092057e+00 -3.17291647128145e-01  1.32412300923419e+00 
 H  1.83475834637058e+00  4.47395632369280e+00  8.69549025980173e+00    -1.99103680937979e+00  6.46306851050617e-01  6.26406094651383e-01 
 O  7.59196665089101e+00  8.92687388403073e+00  4.87339650322170e+00     3.36316728507129e-01  4.38471935252845e-01  1.45779833889438e-01 
 H  1.45215578924224e+00  2.91866699345494e+00  7.98518062983204e+00    -1.33787754399338e+00 -4.56343710028641e-01 -2.31489765271975e+00 
 H  9.19022483220379e+00  6.12960172207486e+00  5.71484643256495e+00     3.37985466273940e+00 -3.13046611795044e+00 -4.04388868085351e+00 
 O  3.44212947360762e+00  8.62495673152531e+00  2.54976294495570e+00     5.25026329015021e-01 -1.03140709373235e+00 -7.15833836472444e-01 
 H  2.01365094668062e+00  1.47078952045254e+00  8.47544300289678e+00     1.53872745852942e+00  8.25067743351075e-01  2.16145830856680e+00 
 H  4.00540060352737e+00  6.58589992182711e+00  7.24340619663942e+00    -1.98701023915786e+00 -2.20401234373316e-01 -2.07021068245878e-01 
 O  1.07427721533876e-01  2.84653950404740e+00  4.35508529910681e+00    -3.69934132089613e-01  4.20424479951995e-01  1.86857381026337e-01 
 H  4.77542964360965e+00  2.90297432805108e+00  6.83361998430211e+00    -3.76448924688771e+00  5.38816313719245e-01 -1.59184865114768e+00 
 H  3.86796333737645e+00  9.01850397393046e+00  5.96063961583035e+00     1.80112146058396e+00  1.14411688946274e+00  1.38433927136773e+00 
 O  1.31121865019704e+00  5.00012444430758e+00  8.29659284983758e+00    -7.27306378978463e-01 -3.15556252033053e-01  3.32893105927286e-01 
 H  3.85147676218668e+00  4.20502824213134e+00  3.75159678187709e+00    -2.31637376237082e+00 -1.48992581332733e+00 -1.53908959485194e+00 
 H  1.56749611729184e+00  7.28873877587978e+00  1.49969606046969e+00     9.30699150224413e-01  2.61154421338796e+00 -1.13138286143400e+00 
 O  8.76241553603685e+00  1.97561652301645e+00  7.38252555909985e+00     4.11516423359824e-01  7.36802185553831e-01 -1.63920294535726e-01 
 H -7.00430179940302e-01  3.05176345346460e+00 -4.36868856872988e-01     1.43871800372516e-01 -2.41959999359962e+00  1.71652316676480e+00 
 H  6.21681750117209e+00  3.80251903438486e+00  6.03984404199446e+00     1.03935576038211e-01  1.60180068876517e+00  1.99353089214682e+00 
 O -9.21162345745097e-01  5.09111959919629e+00  3.65509083425001e+00    -5.15483317268461e-01  1.43714750986222e-01  1.51696311694440e-01 
 H  5.45342427626334e+00 -1.94476265447267e-01  6.53601402174288e+00    -4.26113238550250e-01  2.42485771779489e+00  3.54453663288700e+00 
 H  3.23642108772839e+00  5.98399758757868e+00  1.82009114852844e+00     2.22527206257320e+00 -3.93089140045015e+00 -2.71196720513162e+00 
 O  3.62718864535517e+00  5.57367100724954e+00  9.86146907810180e-01     5.04239747420380e-01 -5.28250305040635e-02  2.32559381327402e-01 
 H  1.47498220152868e+00  4.93643612281853e+00  7.19782700933044e+00     3.18433990164777e-01 -1.67257711597715e+00  4.50998240410439e+00 
 H  5.61359820622440e+00  6.07333216711257e+00  6.58173711906021e+00     6.38812377079939e-01 -9.33621853406676e-01  2.17483889653089e-01 
 O  6.24952664427893e+00  1.06998502464541e+00  9.53452177247985e-01     4.74363194149094e-01 -1.11923502881103e+00  8.41071340500216e-02 
 H  5.51499318600147e+00  5.04743594008290e+00  3.90525491662319e+00     5.00445838009917e-02  1.07739068235704e+00  1.58347226963730e+00 
 H  3.85344961032318e+00  9.61734180643569e+00  2.45582651043066e+00    -2.60655850126943e+00  2.43511566449780e-01  2.35128886451328e+00 
 O  3.60275512321593e+00  3.58189875703287e+00  4.78469269945170e+00     3.35493189348978e-01  2.18741772153457e-01 -3.98652489766274e-01 
 H  8.92755933837395e+00  7.35061291813819e+00  6.37344629157379e+00    -1.50901307827335e+00  1.38700666868842e+00 -1.66431417602639e+00 
 H  7.55081679496351e+00  6.61390089593691e+00  6.55415453202221e+00    -9.50697533857702e-01 -9.96387654689185e-01 -3.52663507437136e+00 
 O  4.24350264257293e+00  3.07164943303834e+00  1.28290095865360e+00    -1.74784544218255e-01  6.09767945484979e-02  2.24103872173037e-01 
 H  1.05347471534953e+01  4.52194665651665e+00  5.29395398729496e+00     3.19743597324270e+00 -2.24616003430739e-01 -4.53573015120105e+00 
 H  7.45014266001476e+00  4.84949982671319e+00 -1.91312445328926e-01     3.39841479769633e+00 -8.46580137261723e-01  8.07504740261142e-01 
 O  8.59688774101525e+00  1.20991482690735e+00  1.45874154579980e+00    -8.84780543559237e-01  4.99121317377447e-01 -3.59921156026809e-01 
 H  8.27304377065850e+00  9.09696656670829e+00  4.00303557748311e+00    -1.23925376480918e+00 -1.55069053090070e+00 -2.08213660036704e+00 
 H  2.74092943345436e+00  5.82881557726157e+00  7.54172233611630e+00    -1.30788119878104e+00  9.84414678769997e-01 -1.21991779282095e+00 
 O  7.26881754552833e+00  7.63764266596779e+00  2.84105270618336e+00    -8.56357649234039e-02  1.40570948503106e-01 -4.43384403752873e-01 
 H  1.53424981757283e+00  2.92035243046233e+00  3.66031549232016e+00    -2.10578067420752e+00  1.31486610331353e+00 -6.20176117630704e-01 
 H  8.00962804952337e+00  1.00139640110139e+00  5.46236279529147e+00     4.29707755852643e+00  1.65198035165517e+00 -1.46746874214621e+00 
 O  6.40153113526897e+00  2.79218909188458e+00  5.72609878436391e+00    -1.49730561020218e-02  2.57182593949718e-01  2.68737386757905e-01 
 H  4.58743479243075e+00  3.17875960887337e+00  8.49517575936358e+00    -1.60864945823338e+00 -1.16868460722289e-01  3.91708594552174e-02 
 H  8.59270437075110e+00  2.78694838613751e+00  6.77143353848980e+00    -3.60490912795757e-01 -6.98548610996158e-01 -1.30949639177069e-01 
 O  2.09897119305190e+00  2.36504245001078e+00  8.68522774714947e+00    -6.94014538263309e-01 -3.61109202942804e-01  5.98038345736471e-01 
 H  4.54130848966060e+00  3.48399519367752e+00  4.54188342961846e+00     4.08374270275933e+00  1.68247372519034e+00  4.08007646765532e-01 
 H  4.13188310891622e+00  1.26376810969973e+00  4.02080300549822e+00     4.06427674374396e-02 -2.62281365156736e+00 -1.72786144555610e+00 
 O  8.36847310354930e+00  6.63952998367305e+00  6.09727624688976e+00    -1.78678767229780e-02  1.04676434965928e+00 -5.56006901933518e-01 
 H  4.00530177672280e+00  4.62983775555046e+00  1.43280168285570e+00    -5.95603406721029e-02 -1.40303492794433e+00  2.26766578508164e+00 
 H  8.52822073345631e+00  1.09269393872900e+00 -5.36483532245198e-01     3.71308417480081e-01  1.02857624333807e+00 -3.34217349184779e+00 
 O  8.50802834040136e-01  6.78692742579121e+00  2.09587906398264e+00    -6.01270501847543e-01  2.21708089105320e-01  5.68290590168167e-01 
 H  7.23470407701293e+00  2.37064124408950e+00  5.85830518307173e+00    -1.64640568482814e+00 -1.34746481842867e+00 -1.24765840644038e+00 
 H  5.99647371040951e+00  1.75895467238740e+00  2.41431207390752e-01    -1.30827033435102e+00 -1.43627041349478e+00  1.32573936991034e+00 
 O  5.63617009365170e+00  6.47273993346790e-01  7.42271381739407e+00     5.35552526272222e-01 -5.91509708323935e-01 -1.24520669001805e-01 
 H  5.33888646012414e+00 -1.19491088712685e+00  2.75524664593933e-01     1.11160981000905e+00  1.27430520334587e+00 -2.60850535833242e+00 
 H  3.33371848176778e+00  3.45192652320491e+00  1.56325988537819e+00    -7.17019553742341e-01  2.72485128729884e+00 -3.45118957265435e+00 
 O  2.38811624089730e+00  5.83678802343472e+00  3.83077650720958e+00    -4.36733404207941e-01 -3.45306311302814e-01  9.15682824279948e-02 
 H  1.15056728318219e+00  3.61263280497023e+00  2.08355430907807e+00     9.86039230522933e-01  1.24593219974513e+00 -1.14590370952391e+00 
 H  3.43913446468523e+00  2.96390481179951e+00  5.48952904217187e+00    -1.91834938867593e-01  2.71623101299198e-01  1.70263692374139e-01 
 O  5.13471516147496e+00  4.72169279547046e+00  3.07417340432291e+00     7.52346582659977e-01  5.39929390613585e-01 -9.33845780132147e-02 
 H  4.34484643639153e+00  4.36478531961323e+00  7.31191547950457e+00     1.17381779537934e+00  2.09672355863989e-01  7.31442516066893e-01 
 H  7.85351307397373e+00  2.97026594045422e+00  2.90751337122286e+00     8.83123068337961e-01  1.33104484452644e+00  2.61023169598795e+00 
 O  5.82667780225805e+00  6.70800529868306e+00  2.19617853727821e-01    -7.54844870058738e-02 -1.56871580105077e+00 -1.09980872123172e+00 
 H  4.89062332427149e-01  6.87905928747556e+00  8.77593768872996e+00    -2.41703838934994e+00  5.40266279378859e-01  2.23494322479451e+00 
 H  2.28081743495593e+00  6.57620904191349e+00  4.38846233430229e+00     5.49761179642096e-01 -2.98069205997399e+00  8.45632384560527e-01 
 O  3.49564831695351e+00  5.76725257180283e+00  6.77149832707988e+00     4.17630811680982e-01  4.15692605206547e-03  4.39829415957667e-01 
 H  3.94972416404175e+00 -5.59478820152917e-01  2.06648539444690e+00     8.42421974792834e-01 -2.16496803418119e+00 -1.88810846686694e+00 
 H  6.19897127493974e+00  5.98789400239018e+00 -1.50282613113930e-01    -1.29045594518087e+00 -1.22157145429520e+00  6.60654747067505e-01 
 O  2.96992329548830e+00  9.62455993743251e+00  5.91167521297628e+00    -4.35785788232139e-01 -1.18852841162047e-02  3.37586754502044e-01 
 H  4.74517517671719e-01  8.51665954248227e-01  2.25748271016194e+00    -4.87742722622278e-01 -1.62963320502885e+00  4.38908149443732e+00 
 H  8.20603905681857e+00  4.02061795189356e+00  9.09800339713887e-01    -4.87823213750826e-01 -2.93244639117905e+00 -1.11215906921501e+00 
 O  7.49926628653695e+00  3.88986443594745e+00  1.91820963469333e-02     1.43962944776506e-01  3.45892520041048e-01  1.84195698946479e-01 
 H  2.53154807193843e+00  1.52556346291648e-01  2.75403606559668e+00     2.65392860045561e+00 -3.42812353397258e-02  2.19844312853037e+00 
 H  7.02420502325578e+00  7.15343083938810e+00  2.14221411315887e+00    -5.35184960301044e+00  3.68523309024857e-01 -3.93020613715549e-01 
 O  5.94232083797130e+00  5.09197449893378e+00  5.69275010532902e+00    -9.64339614772389e-01 -1.81259460874743e-01  1.97984768356786e-01 
 H  2.15782917708775e+00  9.17190603799667e+00  6.19289353726316e+00    -4.31058713506883e+00 -3.90093826351826e-01 -2.67175085884228e+00 
 H -1.67131577347492e+00  4.53071911507876e+00  3.29649879894134e+00     4.35772069141279e-01  3.32444483810886e-02  5.80242070819016e-01 
 O  4.62502513242937e+00  3.49679832691368e+00  7.52654439876285e+00     6.48349111065516e-01 -2.66381057724416e-02 -9.71945396882432e-02 
 H  6.41353177153786e+00  7.57483125998088e-02  7.81753043978543e+00     9.17502748690054e-01  4.03064005657977e+00 -5.82955692881868e-01 
 H  7.46467631421625e+00  1.93050565581876e+00  2.17563877808553e+00     2.16122851246870e+00  1.99928691926788e+00 -6.60628136637814e-01 
 O  4.69257057819377e+00  1.47484887578294e+00  3.23440753136181e+00    -2.48759057831460e-01  9.81104875888915e-01 -4.77302933898413e-01 
 H -1.42887949686157e+00  5.03304246969999e+00  4.55815549914226e+00     1.65074339153184e+00  3.77487406174265e+00  1.09379378029271e+00 
 H -1.43053635867187e-01  3.12290798629597e+00  5.28290558301534e+00     1.18508286550680e+00  3.04377702479269e+00  1.10614428821678e+00 
 O  3.54353367305868e+00 -4.43389779195466e-02 -1.48590736141086e-02     3.28822125142672e-01  7.93352263002290e-02 -4.19077116575162e-01 
 H  6.28777886803760e+00  4.19097994675387e-01  1.71958945554864e+00     2.71373759085121e+00 -4.03402360321139e-01  1.07108601885947e+00 
 H  7.31612654954616e+00  1.39432953494852e+00  1.12289013362341e+00    -1.09953386006584e+00  8.18051950331681e-01  1.44298158378513e+00 
 O  5.22079331844260e+00  7.72704911832282e+00  5.90754897549340e+00    -1.46912969920886e+00  5.13910779814676e-01 -2.36170702764860e-02 
 H  6.49635392107524e+00 -8.37349355288667e-01  3.85336471548760e+00     6.18807349252519e-01  3.40609885372617e+00 -2.07577097587005e-03 
 H  1.76284605552902e+00  7.88326623831388e+00  8.56109103926356e+00     4.18859656002145e+00  6.93236812999821e-01  4.49333327072483e-01 
 O  1.73245511052083e+00  3.33019183952103e+00  2.78722516073399e+00     1.63620288718563e-01 -4.33660205416633e-01  8.34474181410880e-01 
 H  3.07496126629223e+00  1.44393566261474e-01  9.39537497061413e+00     1.55034687214368e+00 -4.89271189705448e+00  1.02800027708561e+00 
 H  4.75563280555694e+00  2.10748534465316e+00  2.57117586322543e+00     3.63738670593622e+00  4.12181993012331e+00 -5.02993721710059e+00 
 O  1.02136488994706e+01  5.02288057052924e+00  5.98256638393571e+00    -9.61937939052842e-02 -5.04384602756723e-01  1.53439199520089e-02 
 H  4.30467327148202e+00  2.51660367886471e-01 -4.99850242808830e-01     1.77866731492746e+00 -3.32056814534056e-01 -6.98813288087567e-01 
 H  2.99856071289929e+00  5.39923318202181e+00  3.43125084132911e+00     2.82314014315069e+00 -5.23974376524816e-01  1.73128192807078e-01 
 O  7.04314714565701e+00  2.82129368513811e+00  2.46002386282819e+00     2.22177108527191e-01 -2.57130369229894e-01 -4.58788965225467e-02 
 H  5.18517214252107e+00  7.28166982624310e+00  4.81751594280676e+00     1.89723417652163e+00  5.99021786148037e-01  1.02325396099512e+00 
 H  7.71508874894194e+00  7.19324212030008e+00  3.74750358621284e+00    -6.23149433709097e-02  3.73220228182835e-01  8.17601930317948e-01 
