   96
 8.60913090000000e+00  8.60913090000000e+00  8.60913090000000e+00
 O  8.49646802096760e-01  7.40478751390349e+00  8.15997458454299e+00     7.40559896504493e-01 -2.70462547094453e-01  5.31604146055053e-01 
 H  1.14180862073422e+00  5.87869207846635e+00  2.41651561874817e+00     2.85959939354290e+00 -3.17395902612609e-01  1.32410662628459e+00 
 H  1.83481544744083e+00  4.47396731654670e+00  8.69548015813174e+00    -1.99600587634079e+00  6.50679265058149e-01  6.22614042025305e-01 
 O  7.59196396491083e+00  8.92686782359507e+00  4.87339855740999e+00     3.36333510809188e-01  4.38455496078717e-01  1.45787242362827e-01 
 H  1.45225285776767e+00  2.91887241198056e+00  7.98526020452214e+00    -1.33739305973224e+00 -4.54824193910579e-01 -2.31456491417291e+00 
 H  9.19025794713298e+00  6.12965307374030e+00  5.71480182406101e+00     3.38031601804637e+00 -3.12968346263499e+00 -4.04434696811817e+00 
 O  3.44213692537275e+00  8.62496633833380e+00  2.54977036659615e+00     5.25075010054441e-01 -1.03123637151170e+00 -7.15800263445936e-01 
 H  2.01361684633234e+00  1.47079437287145e+00  8.47545290047279e+00     1.53843613272703e+00  8.24887309344841e-01  2.16118226082190e+00 
 H  4.00540530019567e+00  6.58590005152767e+00  7.24340079045468e+00    -1.98704846836904e+00 -2.20414399564961e-01 -2.06888434192705e-01 
 O  1.07424489070165e-01  2.84654142488117e+00  4.35507961764826e+00    -3.69931940857948e-01  4.20458786877985e-01  1.86830821809587e-01 
 H  4.77542690257989e+00  2.90297446501361e+00  6.83362007542051e+00    -3.76452940586271e+00  5.38846607385895e-01 -1.59180287195050e+00 
 H  3.86796147073294e+00  9.01850736951895e+00  5.96064682731834e+00     1.80107792290689e+00  1.14418832545611e+00  1.38437185661645e+00 
 O  1.31121880746959e+00  5.00012819205021e+00  8.29660156886144e+00    -7.27013652212464e-01 -3.15852184741791e-01  3.33164640656695e-01 
 H  3.85158451012298e+00  4.20514542119213e+00  3.75145309742524e+00    -2.31458815411946e+00 -1.48842945024958e+00 -1.54146724589817e+00 
 H  1.56747018749760e+00  7.28879752257014e+00  1.49971541279910e+00     9.30520032544641e-01  2.61188683640487e+00 -1.13117820715705e+00 
 O  8.76241534810567e+00  1.97561959264915e+00  7.38253183185196e+00     4.11513689648040e-01  7.36814071894302e-01 -1.63919848627692e-01 
 H -7.00419181342035e-01  3.05176014155468e+00 -4.36857486610733e-01     1.43967395796654e-01 -2.41957513847803e+00  1.71662154267794e+00 
 H  6.21682353952984e+00  3.80251888405951e+00  6.03984076769945e+00     1.03941369124278e-01  1.60182590719728e+00  1.99352110026046e+00 
 O -9.21162395380056e-01  5.09111643544457e+00  3.65508746809431e+00    -5.15471985422565e-01  1.43695956389732e-01  1.51692450727922e-01 
 H  5.45343573743285e+00 -1.94449550027752e-01  6.53603658610385e+00    -4.25776217147208e-01  2.42564300252538e+00  3.54501535607955e+00 
 H  3.23643250678999e+00  5.98403249082534e+00  1.82005956962611e+00     2.22521138894964e+00 -3.93090700707943e+00 -2.71194116894620e+00 
 O  3.62717777018211e+00  5.57365283112411e+00  9.86140939667245e-01     5.04211741906214e-01 -5.28728347693441e-02  2.32527462829972e-01 
 H  1.47497718147450e+00  4.93644783453006e+00  7.19780371945189e+00     3.18468701426291e-01 -1.67268629020220e+00  4.50973449899925e+00 
 H  5.61348530829000e+00  6.07329554538449e+00  6.58174588102351e+00     6.38670525681315e-01 -9.33739434896992e-01  2.17511546593699e-01 
 O  6.24952247941728e+00  1.06998216975815e+00  9.53447734621799e-01     4.74345980985237e-01 -1.11925074600085e+00  8.40979267317663e-02 
 H  5.51501104161620e+00  5.04744249555737e+00  3.90524485625427e+00     5.00625938571113e-02  1.07744859934954e+00  1.58344597684323e+00 
 H  3.85345431012735e+00  9.61740795396021e+00  2.45589615763363e+00    -2.60641115946894e+00  2.42796163347360e-01  2.35278427904051e+00 
 O  3.60274988303148e+00  3.58189717949887e+00  4.78469785397546e+00     3.35439040565417e-01  2.18680598227647e-01 -3.98536812774942e-01 
 H  8.92750642720655e+00  7.35058628598090e+00  6.37354996100477e+00    -1.50915214290349e+00  1.38619479491246e+00 -1.66404005789590e+00 
 H  7.55079467915931e+00  6.61383731625682e+00  6.55412704851885e+00    -9.50324697422452e-01 -9.96486371732547e-01 -3.52700550574510e+00 
 O  4.24350029406082e+00  3.07163966656824e+00  1.28292501265299e+00    -1.74880960169721e-01  6.08971671813173e-02  2.24312302076943e-01 
 H  1.05347927465646e+01  4.52192537203056e+00  5.29397132415313e+00     3.19779145462782e+00 -2.25011132634004e-01 -4.53568669348291e+00 
 H  7.45013383308831e+00  4.84949541563958e+00 -1.91309523934583e-01     3.39838439116653e+00 -8.46571716993095e-01  8.07481249135316e-01 
 O  8.59689051735731e+00  1.20991424478013e+00  1.45873758667458e+00    -8.84796190889808e-01  4.99125755034186e-01 -3.59957736079358e-01 
 H  8.27306468044126e+00  9.09691402849758e+00  4.00304645217502e+00    -1.23929875407064e+00 -1.55083874673345e+00 -2.08206484117089e+00 
 H  2.74089895454587e+00  5.82882211370566e+00  7.54168249889808e+00    -1.30787211927656e+00  9.84625523479429e-01 -1.22015169574388e+00 
 O  7.26881532034539e+00  7.63764637916823e+00  2.84105024023301e+00    -8.56449636370079e-02  1.40587415043342e-01 -4.43400963412742e-01 
 H  1.53423893570039e+00  2.92035959435705e+00  3.66032231968632e+00    -2.10574924336037e+00  1.31493555049787e+00 -6.20350302735111e-01 
 H  8.00963181845135e+00  1.00139878150725e+00  5.46235059900907e+00     4.29700563185710e+00  1.65194647387351e+00 -1.46754037164648e+00 
 O  6.40153021202934e+00  2.79219065024620e+00  5.72609789971355e+00    -1.49788397897339e-02  2.57200064022617e-01  2.68735187999555e-01 
 H  4.58744518839515e+00  3.17875348667411e+00  8.49515758778925e+00    -1.60838385714477e+00 -1.16976823326560e-01  3.91033240078270e-02 
 H  8.59270911747311e+00  2.78694464342585e+00  6.77143911948507e+00    -3.60434537546645e-01 -6.98304186882269e-01 -1.30980707068249e-01 
 O  2.09897364083167e+00  2.36503794807072e+00  8.68522756923084e+00    -6.93970365257873e-01 -3.61111245120883e-01  5.98086113470925e-01 
 H  4.54129372564718e+00  3.48400750833001e+00  4.54186358101503e+00     4.08342920429412e+00  1.68255710049490e+00  4.07713490009833e-01 
 H  4.13190843424108e+00  1.26375858503441e+00  4.02081695501498e+00     4.11345248033591e-02 -2.62281995794265e+00 -1.72845895840384e+00 
 O  8.36846884195863e+00  6.63952890017393e+00  6.09727091709914e+00    -1.79326842946025e-02  1.04678298821926e+00 -5.55964990680448e-01 
 H  4.00532387665654e+00  4.62987421572200e+00  1.43284747399631e+00    -5.94493839347676e-02 -1.40308457616232e+00  2.26796996301998e+00 
 H  8.52822771363839e+00  1.09267977271847e+00 -5.36485970972340e-01     3.71182951777368e-01  1.02798811678453e+00 -3.34173521130102e+00 
 O  8.50801675829405e-01  6.78692897711789e+00  2.09587836480756e+00    -6.01281472241597e-01  2.21709854758572e-01  5.68285907739109e-01 
 H  7.23469554282820e+00  2.37064243433865e+00  5.85832555992532e+00    -1.64643414787686e+00 -1.34744009675797e+00 -1.24750097558521e+00 
 H  5.99648022534484e+00  1.75896045024408e+00  2.41434611665783e-01    -1.30817841252565e+00 -1.43624065170365e+00  1.32572118647823e+00 
 O  5.63617085630874e+00  6.47275073202449e-01  7.42271171623446e+00     5.35549946850430e-01 -5.91503309234694e-01 -1.24514566257125e-01 
 H  5.33890256251262e+00 -1.19490116685902e+00  2.75516044366263e-01     1.11207614568866e+00  1.27402994312045e+00 -2.60869411722185e+00 
 H  3.33364943566637e+00  3.45191828083835e+00  1.56310972944977e+00    -7.16352084869168e-01  2.72473455490526e+00 -3.45247649749386e+00 
 O  2.38810762857805e+00  5.83679457806193e+00  3.83078057967111e+00    -4.36813102699797e-01 -3.45192059243070e-01  9.16654706868802e-02 
 H  1.15056467813125e+00  3.61261472340226e+00  2.08355051373735e+00     9.86029816077985e-01  1.24582679128080e+00 -1.14581044012685e+00 
 H  3.43915149530176e+00  2.96389639058909e+00  5.48952449671375e+00    -1.91825689627654e-01  2.71494875413527e-01  1.70191919623008e-01 
 O  5.13472422520406e+00  4.72168469635339e+00  3.07417024065586e+00     7.52357502764908e-01  5.39891022803615e-01 -9.33708899719131e-02 
 H  4.34484736347255e+00  4.36478649351205e+00  7.31191786727760e+00     1.17385134639748e+00  2.09634810693277e-01  7.31409200199668e-01 
 H  7.85350408229918e+00  2.97029063282915e+00  2.90751809428677e+00     8.82834621843307e-01  1.33119179423411e+00  2.61006270796210e+00 
 O  5.82667663922106e+00  6.70800563023510e+00  2.19617521501312e-01    -7.55332171378821e-02 -1.56869292731163e+00 -1.09980425032224e+00 
 H  4.89080751946530e-01  6.87903663046328e+00  8.77590470117546e+00    -2.41658745373882e+00  5.40558459704053e-01  2.23443705533029e+00 
 H  2.28083004780340e+00  6.57620029978626e+00  4.38848155004346e+00     5.49812201162019e-01 -2.98057577597871e+00  8.45628395088537e-01 
 O  3.49565509829693e+00  5.76725232078102e+00  6.77149660997936e+00     4.17659346108464e-01  4.15767040213331e-03  4.39801862864302e-01 
 H  3.94978943196784e+00 -5.59492360994554e-01  2.06661955282492e+00     8.43567224375370e-01 -2.16497102858331e+00 -1.88759649103234e+00 
 H  6.19898092990085e+00  5.98790348246469e+00 -1.50288961857721e-01    -1.29040693821147e+00 -1.22154630897983e+00  6.60647249611864e-01 
 O  2.96992104633511e+00  9.62456304971248e+00  5.91167527351869e+00    -4.35786287619914e-01 -1.18796496862833e-02  3.37592364744495e-01 
 H  4.74532589317449e-01  8.51683966993917e-01  2.25748214139947e+00    -4.87633209763361e-01 -1.62956521624838e+00  4.38919858750377e+00 
 H  8.20605920475854e+00  4.02061617727360e+00  9.09789560623693e-01    -4.87747598298327e-01 -2.93250721224893e+00 -1.11215713454013e+00 
 O  7.49926835513625e+00  3.88986219933601e+00  1.91819333155091e-02     1.43965907288306e-01  3.45886608803843e-01  1.84199731770622e-01 
 H  2.53155321994294e+00  1.52554010683964e-01  2.75403516613285e+00     2.65401073442925e+00 -3.42298957126583e-02  2.19850440131157e+00 
 H  7.02421390439094e+00  7.15340706413372e+00  2.14223184948180e+00    -5.35175350866959e+00  3.68448447634249e-01 -3.92795977718942e-01 
 O  5.94233111814690e+00  5.09197253151171e+00  5.69275896331337e+00    -9.64332145824825e-01 -1.81274955028449e-01  1.98006716101543e-01 
 H  2.15782806189321e+00  9.17190592320817e+00  6.19289381584347e+00    -4.31062422744965e+00 -3.90115011800590e-01 -2.67172884323921e+00 
 H -1.67132672393031e+00  4.53072883250949e+00  3.29650908031320e+00     4.35956458052596e-01  3.32345788799618e-02  5.80270521420667e-01 
 O  4.62502490011868e+00  3.49679994817861e+00  7.52654477738164e+00     6.48352651472933e-01 -2.66347493537036e-02 -9.72147283038853e-02 
 H  6.41353056274396e+00  7.57539053600644e-02  7.81753664508227e+00     9.17561182613988e-01  4.03065974853762e+00 -5.82983736814974e-01 
 H  7.46465756617184e+00  1.93045188258272e+00  2.17571970803979e+00     2.16095913174925e+00  1.99888878516017e+00 -6.61055485783432e-01 
 O  4.69255945902074e+00  1.47486859830261e+00  3.23436928115359e+00    -2.49076237010743e-01  9.81725040599799e-01 -4.77917933945194e-01 
 H -1.42884972720467e+00  5.03300416790959e+00  4.55816617716803e+00     1.65079248820822e+00  3.77477207569020e+00  1.09381897720616e+00 
 H -1.43042165786979e-01  3.12284773565355e+00  5.28291826837030e+00     1.18517802986170e+00  3.04362181662202e+00  1.10631994361507e+00 
 O  3.54353341297997e+00 -4.43393303288536e-02 -1.48615661848247e-02     3.28817381066989e-01  7.93335884918461e-02 -4.19104818255901e-01 
 H  6.28777204466987e+00  4.19102140642263e-01  1.71958955335465e+00     2.71374678032488e+00 -4.03366370791129e-01  1.07108321206885e+00 
 H  7.31615160224342e+00  1.39433873942809e+00  1.12291408762001e+00    -1.09916294627075e+00  8.18444734262470e-01  1.44367319554088e+00 
 O  5.22078769011295e+00  7.72706126699031e+00  5.90754764743742e+00    -1.46917312162183e+00  5.13880733055793e-01 -2.36608835764457e-02 
 H  6.49634151094007e+00 -8.37379111697093e-01  3.85334431806818e+00     6.18806491398461e-01  3.40578816426489e+00 -2.22992737123166e-03 
 H  1.76284074478507e+00  7.88325470604459e+00  8.56108631931344e+00     4.18867984622599e+00  6.93179829108286e-01  4.49409617303913e-01 
 O  1.73245515176152e+00  3.33019617184222e+00  2.78722667896520e+00     1.63614106124714e-01 -4.33631771816545e-01  8.34486508700362e-01 
 H  3.07495566226783e+00  1.44397061945340e-01  9.39536586056711e+00     1.55031421463984e+00 -4.89267561917747e+00  1.02811583954538e+00 
 H  4.75578552220589e+00  2.10710703374983e+00  2.57138014919169e+00     3.64119235402470e+00  4.11097282501484e+00 -5.02356057635798e+00 
 O  1.02136553007120e+01  5.02288081671395e+00  5.98256594578970e+00    -9.61816630530025e-02 -5.04382645392797e-01  1.53360745021236e-02 
 H  4.30467605638887e+00  2.51660713935648e-01 -4.99844867588984e-01     1.77871799742129e+00 -3.32057392664551e-01 -6.98808887528568e-01 
 H  2.99842836716471e+00  5.39910078374812e+00  3.43119650792691e+00     2.82293610072445e+00 -5.26350005279622e-01  1.72086605706435e-01 
 O  7.04315010708781e+00  2.82129666482287e+00  2.46002491002391e+00     2.22195125006961e-01 -2.57137248377406e-01 -4.58606093445759e-02 
 H  5.18516739676825e+00  7.28166483108778e+00  4.81752723663385e+00     1.89727606804803e+00  5.99114322402954e-01  1.02330243544229e+00 
 H  7.71511832267620e+00  7.19331139741295e+00  3.74752399730146e+00    -6.23368091405230e-02  3.73677566702905e-01  8.17716704418710e-01 
