   96
 8.60913085937500e+00  8.60913090000000e+00  8.60913090000000e+00
 O  1.10938363656310e+00  6.76093960185585e+00  6.68798478498623e+00     2.37271618591004e-01 -2.91070411627503e-02 -6.51092898136242e-01 
 H  3.70144285823138e+00  5.55204488310387e+00 -1.56570137776857e-01    -2.23986874209829e-01  1.31302728704351e+00  1.49903898576125e+00 
 H  5.70656191737748e+00  5.58798494442692e+00  1.01380618576722e+01     1.42071057785529e-01 -2.97475454904240e-01  2.06295643272801e+00 
 O  8.37919087354923e+00  9.00554305371359e+00  4.52363559696717e+00    -1.42322419186659e-01  5.09814050624830e-01  1.14811729953768e-01 
 H  5.55979210479905e+00  9.68597382835505e+00  9.07188923513198e+00    -3.21736990679074e+00  2.13064076100517e+00  1.30831765694282e+00 
 H  9.90337279891464e+00  5.96370458565543e+00  5.64111685165478e+00    -9.22012210876083e-02 -1.39416290903758e+00  4.95986386087344e+00 
 O  1.40021860078794e+00  7.43431896331485e+00  4.87891999515912e-01    -5.75435199791762e-01  6.68481371750069e-01 -1.02713072547640e-01 
 H  3.40259542986579e-01  2.11499263073415e+00  1.00531498773020e+01     5.33829561612330e-01  7.80559486312586e-01 -1.40953845154472e+00 
 H  1.55357795405344e+00  7.54366865531249e+00  6.51516302378586e+00    -4.11012426566078e+00  1.96204424387566e-02  2.59335142460679e+00 
 O  9.33797060658139e-01  2.89343271587612e+00  4.68700368307413e+00    -1.70360848575098e-01  2.61974180579765e-01  1.17575216600273e-01 
 H  3.12140875408179e+00  8.93392634573451e-01  9.00387541722239e+00    -2.94977502250488e+00  1.10166453199174e-01 -8.33012648876120e-01 
 H  2.16510115204200e+00  9.40797929132158e+00  5.24234642619938e+00    -2.29243675654067e+00 -1.07795729033640e+00 -5.37187272706155e-01 
 O  1.42842752289526e+00  4.75858075083251e+00  8.78177079431755e+00     5.01076596115775e-01 -1.34022345043081e-02 -4.76763065092708e-02 
 H  5.78786147466115e+00  5.34208998385086e+00  3.47601528801555e+00     6.99506589957234e-01  2.69094843881859e+00  7.98236067057662e-01 
 H -6.25037542138701e-01  6.87762727564740e+00 -2.19249038441996e+00     2.88593779450546e+00 -2.63881861696105e+00 -1.84743256943833e+00 
 O  9.92943122848950e+00  1.37609189089163e+00  6.68913831955872e+00    -1.09910501979742e+00  2.57176282410047e-02  6.45736512111714e-01 
 H -3.88011594922112e+00  6.55487351567439e+00  1.98215995434726e+00    -9.83134159895857e-01 -1.53373802393565e+00  4.32928202790735e+00 
 H  7.95567801235542e+00  3.55546383354608e+00  6.78750466102400e+00     8.57268604400327e-01  2.53238859710655e+00 -7.94324074505370e-01 
 O -1.06978421406564e+00  5.81980528414052e+00  5.20196892689857e+00     4.09034091696669e-01  8.55276035544534e-02 -4.90212734611114e-02 
 H  4.17554385273640e+00 -6.83476808374379e-01  6.62201060471836e+00     1.88273778781166e+00  4.35243912541374e+00 -6.95455142379136e-01 
 H  5.54364515457970e+00  7.66091017147441e+00  6.15916120815726e-01    -1.83066742817898e+00 -3.13278544298566e-01  2.89610998566832e-01 
 O  5.39989241462508e+00  6.93371362090630e+00  1.18250123321664e+00     4.71417091522909e-01  2.65133887291278e-01 -2.42231541753729e-01 
 H  4.67105913867176e+00  5.79304728168010e+00  5.33593432978550e+00     1.05762240505822e+00  1.12856273640509e+00  1.95635733301606e-01 
 H  7.74803034546137e+00  3.76561088464188e+00  8.37826380883888e+00     7.17163169672774e-01 -2.34992894653102e+00 -3.16020672023889e+00 
 O  7.50543334736722e+00  2.91178253068590e-01 -2.03938507945158e+00     3.38936079355210e-01 -6.63953568753498e-01  9.52955638005086e-01 
 H  4.77785257401970e+00  3.37655599254215e+00  6.62739114846129e+00    -8.09165973440525e-01  1.17806593992294e-01  7.62775446445704e-01 
 H  1.48553347338941e+00  1.21551658594454e+01  1.66333388885458e-01     5.43481767814669e-01  5.47205342535076e-01  6.98334924449871e-01 
 O  4.45445301813940e+00  2.69930669326641e+00  6.02447065545670e+00     2.98741752843855e-01 -4.27812529558878e-01  7.59667748455546e-01 
 H  7.39286442489078e+00  5.67248433170108e+00  8.35756578471554e+00    -3.89805044103862e+00 -1.00376076096307e+00  2.36164998550241e+00 
 H  1.00603517483708e+01  4.99254833562713e+00  9.72561106544295e+00    -1.32644031234668e+00 -1.60869065931914e+00 -2.02718497287155e+00 
 O  3.08358556004569e+00  3.59701156330834e+00  3.07214115936344e+00    -5.06531820663821e-01 -1.35869348545647e-01 -2.61176525269082e-02 
 H  9.23762949931241e+00  8.03367545058227e+00  4.96629205637518e-01     1.23183468213019e-01  2.67001496278021e+00  1.89364689281179e+00 
 H  7.19640380895384e+00  4.65925258226386e+00  1.39165837932639e+00     4.70854007622100e-01  3.57582653765233e+00 -1.42637318104434e+00 
 O  1.11683995440988e+01  8.50792241656927e-01  2.28857432707303e+00     5.40058238055035e-01  4.49566036541974e-02  8.53033722203939e-02 
 H  7.81820498351078e+00  9.88815063105944e+00  3.81563076591503e+00     1.82784906326403e+00  3.90899441620713e-01  5.01623945656533e-01 
 H  3.62789277304014e+00  6.30942356781621e+00  6.89726375440463e+00    -3.21525869086927e+00 -1.00286439673789e+00 -2.35820930539000e+00 
 O  5.48230833638958e+00  7.54471284349331e+00  3.67171104372471e+00    -5.46050863496233e-01  2.87904935028772e-01  7.27563997156310e-01 
 H  1.28036445466497e-01  7.18297924858614e+00  1.79471898053832e+00    -3.40914178346362e+00  5.61919039555388e-01  2.72746614794159e+00 
 H  8.78832164783017e+00 -3.33686232153670e-01  4.16874366725906e+00    -1.56814596483007e+00 -1.26457271379969e+00  3.44338469427230e+00 
 O  6.03290940939285e+00  2.12668436848428e+00  3.93531243420964e+00     4.92639522181324e-01  3.44386575603804e-01  1.24315900494672e-01 
 H  4.38369385167059e+00  2.95580916349461e+00  8.57598096729053e+00    -3.58627158580464e+00  1.80688240821923e+00 -3.43522113957049e+00 
 H  1.08022107748997e+01  1.70457606069177e+00  6.27640863987210e+00    -1.88654120965710e+00 -1.82772500570916e+00  1.56676438312569e-01 
 O  1.59450205419002e+00  2.68062730024764e+00  9.34622714456051e+00     2.34695070217090e-01 -4.67759419305722e-01 -3.77238763586065e-01 
 H  2.89622800315747e+00  4.74089963158070e-01  3.72207122077143e+00    -2.45665523258551e+00 -3.39192974351395e-01  1.08815121694098e+00 
 H  5.46428016701524e+00  1.90141499004869e+00  2.89518728564148e+00     1.05097398292083e+00  3.94473611912939e+00 -4.23617632641177e+00 
 O  7.05530071983060e+00  6.45862344355840e+00  7.87617227242923e+00    -4.86742610355225e-01  5.24958216383607e-01 -2.43712240857202e-01 
 H  3.64034076730361e+00  3.34236102047000e+00  3.71672256175888e+00     7.86773841608911e-01 -2.20170963633641e+00  3.83757190065323e+00 
 H  1.09372769243217e+01  2.33133311021024e+00  1.39570508028038e+00     3.84598764668203e+00 -7.09120379512085e-01  4.57892188132608e+00 
 O -3.26000106753551e-01  7.24248919681457e+00  2.54994630619068e+00     4.36759008355568e-01  6.01407149120057e-02  6.17615207414574e-01 
 H  6.18884098433708e+00  3.12687385306513e+00  3.87341414002621e+00     2.73359783145907e+00 -9.13245928911709e-01  2.11031601164466e+00 
 H  5.56115539908637e+00  2.11953136325649e+00 -3.68940812567942e+00    -5.19394454558798e+00 -1.39047776361139e+00  2.26697318300843e+00 
 O  4.32572661859937e+00 -7.09529562659303e-01  5.62695685351431e+00     1.41907440272109e-01 -8.40745594851801e-02 -6.82894950943394e-01 
 H  6.24351205210175e+00 -2.33037746310357e+00 -1.84409756568464e-01    -2.89254643543061e+00 -1.87101322650873e+00  1.30772556661306e+00 
 H  2.90895641753087e+00  4.44707258605042e+00  2.60851409746526e+00    -2.24760436341443e+00 -6.90594872354217e-01 -1.03759953077484e+00 
 O  3.17943927913025e+00  5.97837176061064e+00  2.74179665597182e+00     1.34435827730018e-01 -1.83402669647488e-01 -3.55530931805522e-01 
 H -2.20894659629539e-01  4.07295165183662e+00  3.45854200399079e+00     7.47940198490546e-01 -3.19944098964828e+00  4.36909159399240e+00 
 H  1.77065343768985e+00  9.05450370112522e-01  7.42745001158324e+00    -7.98000848994852e-01 -4.25701324343133e+00  1.67586856949284e-02 
 O  5.37006754894351e+00  4.59123684792334e+00  3.82701456985594e+00     8.39450873004128e-01 -7.40120960128255e-03 -6.30913958680776e-01 
 H  3.20831392138042e+00  3.91311092802522e+00  8.81988524366814e+00     1.86994232476104e+00  2.37863027767746e+00  1.87774088955436e+00 
 H  7.16759516746911e+00  1.26814090437557e+00  8.18576720471383e-01     2.03495155387335e+00 -2.12311049115140e+00 -3.30368312615584e+00 
 O  6.31925149028085e+00  1.03857693873233e+01  4.03488621415833e-01     1.15584976501283e-02  7.78513071721173e-01 -2.41753605964688e-01 
 H  8.68517793173567e-01  5.87775624595411e+00  6.90579370383323e+00     3.05274659761185e-01 -4.48905436688897e+00  8.31456113559357e-01 
 H  5.00259366344482e+00  4.95907766885865e+00  6.84830461725196e+00     1.76899001224473e+00 -2.82252538568252e+00 -1.46241050268616e+00 
 O  3.87360345963768e+00  6.29092211110668e+00  7.89198511484700e+00    -3.94210475428343e-01 -3.34478180528259e-01 -3.20374370893147e-01 
 H  1.73322059501954e+00 -1.73101520144437e+00 -2.12547336657576e-01     1.71834179106229e-02  1.98732956982534e+00 -1.25374743793221e+00 
 H  8.33374947740638e+00  9.30572074100306e+00 -1.84185324133974e+00    -3.39636350717359e+00  2.19864465863797e+00  2.08250311182727e+00 
 O  2.88103302086677e+00  9.37754045697767e+00  4.69340688077532e+00     1.22678637662962e-01  3.94389049801676e-01  4.37423530093035e-01 
 H  2.51192267162971e+00  1.48986678217565e-01  1.65617373025183e+00     5.62206167592504e-02  1.24569488520522e+00  4.61630614997101e-01 
 H  5.47314111534753e+00  4.02284702921296e+00  8.54280035629678e-01     2.12825141852303e+00 -1.54578290410255e+00  5.96447007396477e-01 
 O  6.26444334047223e+00  4.81708556472160e+00  1.16031212917511e+00     1.38967479045769e-01  4.71417027524000e-01  9.11996788369049e-02 
 H  5.95240176338860e-01  2.12247301535214e+00  4.93908120078257e+00     1.96546144488997e+00 -3.82332952790909e+00  1.56868896447610e+00 
 H  3.76949968347117e+00  9.77344298190859e+00  2.47291926862044e+00     1.75863583283274e+00 -1.47201262984050e+00 -5.08676817603741e+00 
 O  8.05062723131622e+00  3.10685360216927e+00  7.79202781004184e+00    -2.31007122121688e-01 -3.52855510658824e-01 -5.24969931116896e-01 
 H  4.49888281246673e+00  8.87058020028898e+00  5.60273959530350e+00    -9.43850047057816e-02  1.05717234907820e-01 -2.95237501021595e+00 
 H -7.15496949387981e-01  4.90998222225735e+00  5.11480860712632e+00    -6.06282967593857e-01  3.21006627766838e-01 -1.21948087290665e+00 
 O  4.17258040693296e+00  3.83806171003955e+00  8.93449251275076e+00    -4.34997527208693e-01  3.83221452081911e-02 -2.48562426827719e-02 
 H  4.98050004639795e+00 -8.75780125624883e-01  4.83071997372476e+00    -8.83278735738391e-01  1.49197593627051e+00 -1.40665406957396e+00 
 H  7.62484387180387e+00  8.40958082845044e-01  8.88990214202847e-01     7.41371536330737e-03  2.29992582345937e+00  2.31061585652382e+00 
 O  4.64597166668747e+00  1.60120104891846e+00  2.28784925012328e+00     6.09832467595733e-01 -1.25574232995654e-02 -1.13876304809656e-01 
 H  1.29326764830451e-01  5.78503913070737e+00  4.61500056643679e+00     8.86400480830113e-01  9.42904868751421e-01 -1.57257469666819e+00 
 H  1.10844258335252e+00  4.12084213500254e+00  4.58764149464679e+00    -1.38486974678672e+00  2.90082025630031e+00 -1.66637159316513e+00 
 O  3.42154799157620e+00  9.84630186411541e-01 -4.39985908099995e-01    -3.12988323727634e-01 -5.30751007719736e-01 -5.03043608902854e-01 
 H  1.71424212114825e+00  2.57707588539513e+00  3.80815108827910e+00    -2.69200200214186e+00 -1.35919400137168e+00  1.35431410617516e+00 
 H  6.71079687954198e+00  9.42471559725521e-01 -1.65641763703193e+00     3.63069193842978e+00 -2.20066980683838e-02  4.66831328965639e-01 
 O  4.99436040181836e+00  4.99008615337760e+00  5.87532115311228e+00     6.02435406126076e-03 -1.15562589163887e-01 -8.77436966346427e-01 
 H  5.37555808518686e+00 -4.87945536694706e-02  3.58682311996715e+00     2.42515077173808e+00 -1.28307807726464e+00  6.25812638770872e-01 
 H  9.23747957483514e-01  1.09122895271629e+01  6.88122248077767e+00    -1.35142902513304e+00  1.91174569492098e+00  3.14822404783922e-01 
 O -9.64491609561607e-02  4.58698064886313e+00  2.54890224102797e+00    -4.80692475793248e-01  7.10744553693331e-04  1.51662137829460e-01 
 H -1.09635169134050e-01  5.68142699501905e+00  1.10508230642119e+01    -8.48806659165550e-01 -1.91644406282103e+00  7.39463847638641e-01 
 H  5.23111786979632e+00 -1.70882558759751e+00  3.08887117182230e+00     2.47062519902671e-01  1.39847769741966e+00 -7.43974475703773e-01 
 O  9.73388698944791e+00  5.24846314589897e+00  4.88304038549221e+00     3.44967199665647e-01 -4.20433762055843e-01 -6.50583922855578e-01 
 H  4.44086076648883e+00  6.21878637004409e-01 -6.55948893680855e-01     2.19750049161180e+00 -4.67202637802531e+00  1.30199399922343e+00 
 H -6.74724707713061e-01  8.80505288002927e+00  5.57400170507793e+00    -1.44636675859959e+00 -3.12217082164389e+00 -2.04637753881585e-01 
 O  8.55312569031476e+00  1.80224447603359e+00  2.20231124922229e+00     1.72468380475401e-01 -4.59073844592674e-02  4.44742163988726e-01 
 H  2.65454042103947e+00  6.76686687215204e+00  2.69398365260620e+00     1.48854137285677e+00 -1.83415071574924e+00  1.54235628741750e+00 
 H  5.98879282210849e+00  5.24946320134718e+00  5.58359826131345e+00     4.96104706128038e-01 -3.61090077499555e-01  5.90176507425194e-01 
