19

O     10.0254     -0.6326      3.4827
O      7.1981      0.3349      7.1737
O      7.2447      0.6071      2.9886
H     10.9139     -1.2394      3.2522
H      9.5009      1.2133      7.0131
H      7.2693      0.3477      8.3174
H      9.6129      0.9719      4.6360
H      3.6356      4.3398      5.0661
H      3.0373      2.9336      4.9025
H      8.4318      3.3014      6.4518
N      3.7919      3.4258      5.2108
C      9.4849     -0.8690      4.5680
C      4.8768      2.6878      4.5769
C      7.7530      1.0368      4.1920
C      8.7972      0.3054      5.1446
C      6.1990      2.9978      4.5323
C      7.8780      2.3048      6.0022
C      8.4626      1.0590      6.3782
C      7.4919      2.3103      4.7608
19

O     10.0384     -0.6481      3.4607
O      7.2240      0.3046      7.1844
O      7.2561      0.6175      2.9949
H     10.9548     -1.2204      3.2592
H      9.5227      1.2244      7.0938
H      7.3356      0.3538      8.2801
H      9.5545      0.9717      4.7002
H      3.6432      4.4482      5.0197
H      3.1071      2.9799      4.9178
H      8.4794      3.2369      6.3994
N      3.8087      3.4381      5.2103
C      9.4741     -0.8699      4.5609
C      4.8760      2.6868      4.5690
C      7.7480      1.0350      4.1916
C      8.7880      0.2932      5.1609
C      6.1849      2.9764      4.5112
C      7.8783      2.3150      5.9749
C      8.4597      1.0664      6.3838
C      7.4912      2.2861      4.7659
19

O     10.0539     -0.6623      3.4382
O      7.2510      0.2767      7.1946
O      7.2687      0.6292      3.0049
H     10.9607     -1.1827      3.2783
H      9.5162      1.2309      7.1604
H      7.4010      0.3732      8.2458
H      9.5051      0.9802      4.7734
H      3.6527      4.5559      4.9816
H      3.1158      2.9875      4.9244
H      8.5120      3.1619      6.3483
N      3.8315      3.4503      5.2128
C      9.4625     -0.8740      4.5596
C      4.8784      2.6859      4.5630
C      7.7431      1.0313      4.1876
C      8.7788      0.2850      5.1731
C      6.1702      2.9514      4.4910
C      7.8830      2.3272      5.9557
C      8.4585      1.0716      6.3930
C      7.4847      2.2624      4.7645
19

O     10.0712     -0.6743      3.4168
O      7.2788      0.2519      7.2036
O      7.2822      0.6420      3.0187
H     10.9384     -1.1318      3.3068
H      9.4791      1.2334      7.2067
H      7.4638      0.4045      8.2200
H      9.4755      1.0009      4.8482
H      3.6659      4.6343      4.9603
H      3.0673      2.9623      4.9263
H      8.5328      3.0887      6.3017
N      3.8593      3.4635      5.2175
C      9.4506     -0.8817      4.5642
C      4.8831      2.6854      4.5592
C      7.7384      1.0250      4.1796
C      8.7700      0.2806      5.1815
C      6.1559      2.9232      4.4714
C      7.8922      2.3402      5.9453
C      8.4588      1.0742      6.4059
C      7.4715      2.2400      4.7562
