16

O     10.4937     -0.8256      4.4902
O      8.1942     -0.3229      6.9051
O      8.4494      0.3883      3.1967
H      9.4550      0.7180      2.7956
H      7.0253      2.4057      7.0692
H     10.0099      1.4711      4.7813
H      3.9129      4.4451      3.2687
N      4.2711      3.5040      3.4734
C     10.0650     -0.7098      5.6392
C      5.4746      3.3942      3.5811
C      8.1427      0.4476      4.5327
C      9.4222      0.6938      5.4073
C      5.8685      1.9454      4.1554
C      7.4132      1.6359      6.2642
C      8.6215      1.0249      6.5746
C      7.0633      1.8095      4.9409
16

O     10.4823     -0.8301      4.4794
O      8.1853     -0.3305      6.8981
O      8.4582      0.3896      3.1901
H      9.4970      0.7372      2.8064
H      7.0959      2.3729      7.0185
H      9.9762      1.4619      4.8390
H      3.8661      4.4270      3.2722
N      4.2787      3.5044      3.4546
C     10.1071     -0.6749      5.6317
C      5.4739      3.3913      3.5868
C      8.1299      0.4199      4.5346
C      9.4365      0.7088      5.4124
C      5.8734      1.9381      4.1693
C      7.4099      1.6342      6.2766
C      8.6328      1.0435      6.5755
C      7.0659      1.7994      4.9397
16

O     10.4725     -0.8380      4.4656
O      8.1758     -0.3397      6.8920
O      8.4714      0.3911      3.1839
H      9.5143      0.7383      2.8325
H      7.1630      2.3285      6.9646
H      9.9460      1.4505      4.8931
H      3.8236      4.4076      3.2853
N      4.2889      3.5053      3.4377
C     10.1462     -0.6385      5.6251
C      5.4739      3.3842      3.5925
C      8.1177      0.3950      4.5346
C      9.4482      0.7227      5.4171
C      5.8777      1.9323      4.1823
C      7.4031      1.6363      6.2876
C      8.6440      1.0597      6.5758
C      7.0705      1.7876      4.9388
16

O     10.4144     -0.9391      4.2854
O      8.1084     -0.4347      6.8712
O      8.6281      0.3894      3.1724
H      9.7209      0.4962      3.1703
H      6.9325      2.3049      7.2195
H      9.9688      1.6444      4.8072
H      3.6740      4.2169      3.4256
N      4.3998      3.5120      3.3055
C     10.3118     -0.3943      5.5961
C      5.5224      3.1908      3.6524
C      8.1254      0.4027      4.5013
C      9.4313      0.7496      5.4280
C      5.8935      1.9411      4.2375
C      7.3372      1.6889      6.2869
C      8.6819      1.1012      6.6601
C      7.1514      1.6337      4.9516
16

O     10.4038     -0.9460      4.2630
O      8.1191     -0.4479      6.8713
O      8.6476      0.3875      3.1781
H      9.7913      0.4688      3.1866
H      6.9003      2.2262      7.1642
H      9.9322      1.6063      4.7951
H      3.6667      4.1972      3.4102
N      4.4179      3.5102      3.2852
C     10.3205     -0.3693      5.5835
C      5.5311      3.1530      3.6614
C      8.1374      0.4256      4.4984
C      9.4205      0.7513      5.4194
C      5.8948      1.9490      4.2398
C      7.3337      1.7058      6.2950
C      8.6796      1.0967      6.6850
C      7.1626      1.6109      4.9490
16

O     10.3947     -0.9519      4.2418
O      8.1320     -0.4595      6.8722
O      8.6682      0.3862      3.1847
H      9.8357      0.4380      3.1969
H      6.8739      2.1398      7.0891
H      9.8860      1.5566      4.7885
H      3.6624      4.1785      3.3878
N      4.4378      3.5076      3.2641
C     10.3284     -0.3431      5.5647
C      5.5383      3.1148      3.6698
C      8.1499      0.4497      4.4966
C      9.4078      0.7541      5.4098
C      5.8971      1.9566      4.2422
C      7.3330      1.7235      6.3045
C      8.6757      1.0897      6.7097
C      7.1728      1.5886      4.9455
16

O     10.3872     -0.9567      4.2221
O      8.1454     -0.4689      6.8738
O      8.6897      0.3857      3.1917
H      9.8528      0.4033      3.2020
H      6.8344      2.0634      7.0253
H      9.8363      1.5064      4.7835
H      3.6624      4.1608      3.3612
N      4.4596      3.5042      3.2424
C     10.3352     -0.3186      5.5417
C      5.5432      3.0780      3.6767
C      8.1623      0.4741      4.4957
C      9.3929      0.7575      5.4003
C      5.9013      1.9623      4.2456
C      7.3367      1.7399      6.3122
C      8.6693      1.0797      6.7316
C      7.1819      1.5674      4.9419
16

O     10.3813     -0.9602      4.2043
O      8.1589     -0.4760      6.8762
O      8.7120      0.3861      3.1987
H      9.8436      0.3647      3.2026
H      6.7586      2.0102      7.0037
H      9.7914      1.4702      4.7737
H      3.6678      4.1443      3.3333
N      4.4832      3.5000      3.2202
C     10.3405     -0.2982      5.5170
C      5.5453      3.0444      3.6814
C      8.1739      0.4979      4.4960
C      9.3756      0.7610      5.3917
C      5.9084      1.9648      4.2508
C      7.3466      1.7533      6.3145
C      8.6584      1.0652      6.7477
C      7.1897      1.5482      4.9385
16

O     10.3767     -0.9622      4.1884
O      8.1727     -0.4807      6.8794
O      8.7348      0.3873      3.2052
H      9.8112      0.3223      3.1997
H      6.6495      1.9727      7.0163
H      9.7589      1.4609      4.7527
H      3.6796      4.1290      3.3064
N      4.5083      3.4951      3.1975
C     10.3442     -0.2832      5.4916
C      5.5443      3.0154      3.6834
C      8.1842      0.5203      4.4970
C      9.3559      0.7638      5.3850
C      5.9199      1.9631      4.2586
C      7.3621      1.7633      6.3115
C      8.6425      1.0455      6.7570
C      7.1958      1.5320      4.9356
16

O     10.3726     -0.9625      4.1747
O      8.1868     -0.4834      6.8834
O      8.7576      0.3893      3.2112
H      9.7633      0.2765      3.1950
H      6.5384      1.9359      7.0277
H      9.7412      1.4822      4.7212
H      3.6982      4.1149      3.2821
N      4.5346      3.4898      3.1741
C     10.3462     -0.2737      5.4662
C      5.5402      2.9916      3.6824
C      8.1927      0.5408      4.4985
C      9.3344      0.7655      5.3806
C      5.9368      1.9569      4.2694
C      7.3802      1.7704      6.3059
C      8.6232      1.0217      6.7609
C      7.1999      1.5195      4.9332
