21

O      7.7235     -0.8780      5.0110
O     10.3184     -1.1323      4.0377
O      8.4747     -0.6801      7.3033
O      8.5392      0.1875      3.0912
H      9.6547      0.8343      7.7628
H      7.6429     -1.2799      7.0374
H      8.4247      0.6589      2.2290
H      6.7064      2.0731      6.7821
H      9.7369     -1.7383      5.8452
H     10.2057      1.3524      5.3648
H      3.9847      3.6969      2.6815
H      6.8125     -0.7363      5.4501
N      4.9963      3.4049      2.5446
C      9.9903     -0.9209      5.3588
C      5.5963      2.8720      3.4315
C      8.3324      0.5519      4.3332
C      9.4266      0.3417      5.4942
C      6.2922      2.2708      4.3967
C      7.6161      1.4350      6.3547
C      8.7607      0.6081      6.7968
C      7.3815      1.4753      4.9278
21

O      7.7342     -0.8948      5.0363
O     10.3064     -1.1502      4.0281
O      8.4772     -0.6625      7.3053
O      8.5340      0.1790      3.0889
H      9.6207      0.8106      7.7759
H      7.5764     -1.3107      7.1326
H      8.4473      0.6332      2.1847
H      6.6378      2.0501      6.8223
H      9.7787     -1.7740      5.8905
H     10.1491      1.3729      5.4318
H      3.9500      3.6045      2.6450
H      6.7847     -0.7118      5.4659
N      4.9795      3.4030      2.5402
C      9.9928     -0.9183      5.3580
C      5.6190      2.8652      3.4352
C      8.3369      0.5423      4.3064
C      9.4343      0.3665      5.5002
C      6.2876      2.2821      4.4026
C      7.6213      1.4424      6.3804
C      8.7615      0.5905      6.7731
C      7.3791      1.4508      4.9353
21

O      7.7430     -0.9121      5.0614
O     10.2938     -1.1678      4.0190
O      8.4774     -0.6475      7.3075
O      8.5303      0.1699      3.0850
H      9.5620      0.7980      7.7531
H      7.5379     -1.3052      7.2271
H      8.4714      0.6094      2.1547
H      6.5874      2.0083      6.8657
H      9.8138     -1.8094      5.9516
H     10.0807      1.3754      5.4947
H      3.9277      3.5118      2.6072
H      6.7820     -0.6884      5.4670
N      4.9618      3.4001      2.5362
C      9.9964     -0.9132      5.3532
C      5.6426      2.8587      3.4386
C      8.3405      0.5318      4.2847
C      9.4404      0.3973      5.5023
C      6.2839      2.2928      4.4095
C      7.6234      1.4515      6.4031
C      8.7629      0.5730      6.7513
C      7.3769      1.4280      4.9449
21

O      7.7499     -0.9299      5.0863
O     10.2804     -1.1851      4.0106
O      8.4749     -0.6359      7.3100
O      8.5281      0.1600      3.0787
H      9.4831      0.8000      7.6945
H      7.5303     -1.2619      7.3166
H      8.4982      0.5863      2.1457
H      6.5541      1.9482      6.9130
H      9.8417     -1.8248      6.0163
H     10.0100      1.3667      5.5501
H      3.9163      3.4188      2.5706
H      6.8063     -0.6678      5.4535
N      4.9444      3.3955      2.5335
C     10.0004     -0.9068      5.3451
C      5.6657      2.8536      3.4400
C      8.3427      0.5213      4.2699
C      9.4451      0.4319      5.4995
C      6.2821      2.3024      4.4182
C      7.6223      1.4620      6.4220
C      8.7642      0.5564      6.7325
C      7.3742      1.4074      4.9566
21

O      7.7555     -0.9478      5.1106
O     10.2662     -1.2019      4.0034
O      8.4697     -0.6282      7.3128
O      8.5272      0.1490      3.0699
H      9.3925      0.8206      7.6043
H      7.5521     -1.1819      7.3968
H      8.5279      0.5643      2.1587
H      6.5360      1.8720      6.9646
H      9.8610     -1.8088      6.0756
H      9.9495      1.3610      5.5953
H      3.9121      3.3246      2.5372
H      6.8518     -0.6504      5.4291
N      4.9281      3.3888      2.5326
C     10.0042     -0.8997      5.3343
C      5.6872      2.8502      3.4384
C      8.3433      0.5113      4.2628
C      9.4484      0.4678      5.4913
C      6.2833      2.3106      4.4289
C      7.6182      1.4731      6.4368
C      8.7644      0.5417      6.7175
C      7.3704      1.3894      4.9702
