288
NON_ORTHO  0.1476000023E+02  0.0000000000E+00  0.0000000000E+00 0.7380000114E+01  0.1278253516E+02  0.0000000000E+00 0.0000000000E+00  0.0000000000E+00  0.1360000021E+02
C 14.7600 7.3800 1.7000 
C 14.7600 7.3800 5.1000 
C 12.3000 6.1500 1.7000 
C 12.3000 6.1500 5.1000 
C 9.8400 4.9200 1.7000 
C 9.8400 4.9200 5.1000 
C 7.3800 3.6900 1.7000 
C 7.3800 3.6900 5.1000 
C 4.9200 2.4600 1.7000 
C 4.9200 2.4600 5.1000 
C 2.4600 1.2300 1.7000 
C 2.4600 1.2300 5.1000 
C 14.7600 9.5104 1.7000 
C 14.7600 9.5104 5.1000 
C 12.3000 8.2804 1.7000 
C 12.3000 8.2804 5.1000 
C 9.8400 7.0504 1.7000 
C 9.8400 7.0504 5.1000 
C 7.3800 5.8204 1.7000 
C 7.3800 5.8204 5.1000 
C 4.9200 4.5904 1.7000 
C 4.9200 4.5904 5.1000 
C 2.4600 3.3604 1.7000 
C 2.4600 3.3604 5.1000 
C 14.7600 11.6408 1.7000 
C 14.7600 11.6408 5.1000 
C 12.3000 10.4108 1.7000 
C 12.3000 10.4108 5.1000 
C 9.8400 9.1808 1.7000 
C 9.8400 9.1808 5.1000 
C 7.3800 7.9508 1.7000 
C 7.3800 7.9508 5.1000 
C 4.9200 6.7208 1.7000 
C 4.9200 6.7208 5.1000 
C 2.4600 5.4908 1.7000 
C 2.4600 5.4908 5.1000 
C 14.7600 13.7713 1.7000 
C 14.7600 13.7713 5.1000 
C 12.3000 12.5413 1.7000 
C 12.3000 12.5413 5.1000 
C 9.8400 11.3113 1.7000 
C 9.8400 11.3113 5.1000 
C 7.3800 10.0813 1.7000 
C 7.3800 10.0813 5.1000 
C 4.9200 8.8513 1.7000 
C 4.9200 8.8513 5.1000 
C 2.4600 7.6213 1.7000 
C 2.4600 7.6213 5.1000 
C 14.7600 15.9017 1.7000 
C 14.7600 15.9017 5.1000 
C 12.3000 14.6717 1.7000 
C 12.3000 14.6717 5.1000 
C 9.8400 13.4417 1.7000 
C 9.8400 13.4417 5.1000 
C 7.3800 12.2117 1.7000 
C 7.3800 12.2117 5.1000 
C 4.9200 10.9817 1.7000 
C 4.9200 10.9817 5.1000 
C 2.4600 9.7517 1.7000 
C 2.4600 9.7517 5.1000 
C 14.7600 18.0321 1.7000 
C 14.7600 18.0321 5.1000 
C 12.3000 16.8021 1.7000 
C 12.3000 16.8021 5.1000 
C 9.8400 15.5721 1.7000 
C 9.8400 15.5721 5.1000 
C 7.3800 14.3421 1.7000 
C 7.3800 14.3421 5.1000 
C 4.9200 13.1121 1.7000 
C 4.9200 13.1121 5.1000 
C 2.4600 11.8821 1.7000 
C 2.4600 11.8821 5.1000 
C 14.7600 7.3800 8.5000 
C 14.7600 7.3800 11.9000 
C 12.3000 6.1500 8.5000 
C 12.3000 6.1500 11.9000 
C 9.8400 4.9200 8.5000 
C 9.8400 4.9200 11.9000 
C 7.3800 3.6900 8.5000 
C 7.3800 3.6900 11.9000 
C 4.9200 2.4600 8.5000 
C 4.9200 2.4600 11.9000 
C 2.4600 1.2300 8.5000 
C 2.4600 1.2300 11.9000 
C 14.7600 9.5104 8.5000 
C 14.7600 9.5104 11.9000 
C 12.3000 8.2804 8.5000 
C 12.3000 8.2804 11.9000 
C 9.8400 7.0504 8.5000 
C 9.8400 7.0504 11.9000 
C 7.3800 5.8204 8.5000 
C 7.3800 5.8204 11.9000 
C 4.9200 4.5904 8.5000 
C 4.9200 4.5904 11.9000 
C 2.4600 3.3604 8.5000 
C 2.4600 3.3604 11.9000 
C 14.7600 11.6408 8.5000 
C 14.7600 11.6408 11.9000 
C 12.3000 10.4108 8.5000 
C 12.3000 10.4108 11.9000 
C 9.8400 9.1808 8.5000 
C 9.8400 9.1808 11.9000 
C 7.3800 7.9508 8.5000 
C 7.3800 7.9508 11.9000 
C 4.9200 6.7208 8.5000 
C 4.9200 6.7208 11.9000 
C 2.4600 5.4908 8.5000 
C 2.4600 5.4908 11.9000 
C 14.7600 13.7713 8.5000 
C 14.7600 13.7713 11.9000 
C 12.3000 12.5413 8.5000 
C 12.3000 12.5413 11.9000 
C 9.8400 11.3113 8.5000 
C 9.8400 11.3113 11.9000 
C 7.3800 10.0813 8.5000 
C 7.3800 10.0813 11.9000 
C 4.9200 8.8513 8.5000 
C 4.9200 8.8513 11.9000 
C 2.4600 7.6213 8.5000 
C 2.4600 7.6213 11.9000 
C 14.7600 15.9017 8.5000 
C 14.7600 15.9017 11.9000 
C 12.3000 14.6717 8.5000 
C 12.3000 14.6717 11.9000 
C 9.8400 13.4417 8.5000 
C 9.8400 13.4417 11.9000 
C 7.3800 12.2117 8.5000 
C 7.3800 12.2117 11.9000 
C 4.9200 10.9817 8.5000 
C 4.9200 10.9817 11.9000 
C 2.4600 9.7517 8.5000 
C 2.4600 9.7517 11.9000 
C 14.7600 18.0321 8.5000 
C 14.7600 18.0321 11.9000 
C 12.3000 16.8021 8.5000 
C 12.3000 16.8021 11.9000 
C 9.8400 15.5721 8.5000 
C 9.8400 15.5721 11.9000 
C 7.3800 14.3421 8.5000 
C 7.3800 14.3421 11.9000 
C 4.9200 13.1121 8.5000 
C 4.9200 13.1121 11.9000 
C 2.4600 11.8821 8.5000 
C 2.4600 11.8821 11.9000 
C 13.9400 8.3903 1.7000 
C 13.1200 7.2701 5.1000 
C 11.4800 7.1603 1.7000 
C 10.6600 6.0401 5.1000 
C 9.0200 5.9303 1.7000 
C 8.2000 4.8101 5.1000 
C 6.5600 4.7003 1.7000 
C 5.7400 3.5801 5.1000 
C 4.1000 3.4703 1.7000 
C 3.2800 2.3501 5.1000 
C 1.6400 2.2403 1.7000 
C 0.8200 1.1201 5.1000 
C 13.9400 10.5207 1.7000 
C 13.1200 9.4006 5.1000 
C 11.4800 9.2907 1.7000 
C 10.6600 8.1706 5.1000 
C 9.0200 8.0607 1.7000 
C 8.2000 6.9406 5.1000 
C 6.5600 6.8307 1.7000 
C 5.7400 5.7106 5.1000 
C 4.1000 5.6007 1.7000 
C 3.2800 4.4806 5.1000 
C 1.6400 4.3707 1.7000 
C 0.8200 3.2506 5.1000 
C 13.9400 12.6511 1.7000 
C 13.1200 11.5310 5.1000 
C 11.4800 11.4211 1.7000 
C 10.6600 10.3010 5.1000 
C 9.0200 10.1911 1.7000 
C 8.2000 9.0710 5.1000 
C 6.5600 8.9611 1.7000 
C 5.7400 7.8410 5.1000 
C 4.1000 7.7311 1.7000 
C 3.2800 6.6110 5.1000 
C 1.6400 6.5011 1.7000 
C 0.8200 5.3810 5.1000 
C 13.9400 14.7815 1.7000 
C 13.1200 13.6614 5.1000 
C 11.4800 13.5515 1.7000 
C 10.6600 12.4314 5.1000 
C 9.0200 12.3215 1.7000 
C 8.2000 11.2014 5.1000 
C 6.5600 11.0915 1.7000 
C 5.7400 9.9714 5.1000 
C 4.1000 9.8615 1.7000 
C 3.2800 8.7414 5.1000 
C 1.6400 8.6315 1.7000 
C 0.8200 7.5114 5.1000 
C 13.9400 16.9120 1.7000 
C 13.1200 15.7918 5.1000 
C 11.4800 15.6820 1.7000 
C 10.6600 14.5618 5.1000 
C 9.0200 14.4520 1.7000 
C 8.2000 13.3318 5.1000 
C 6.5600 13.2220 1.7000 
C 5.7400 12.1018 5.1000 
C 4.1000 11.9920 1.7000 
C 3.2800 10.8718 5.1000 
C 1.6400 10.7620 1.7000 
C 0.8200 9.6418 5.1000 
C 13.9400 19.0424 1.7000 
C 13.1200 17.9223 5.1000 
C 11.4800 17.8124 1.7000 
C 10.6600 16.6923 5.1000 
C 9.0200 16.5824 1.7000 
C 8.2000 15.4623 5.1000 
C 6.5600 15.3524 1.7000 
C 5.7400 14.2323 5.1000 
C 4.1000 14.1224 1.7000 
C 3.2800 13.0023 5.1000 
C 1.6400 12.8924 1.7000 
C 0.8200 11.7723 5.1000 
C 13.9400 8.3903 8.5000 
C 13.1200 7.2701 11.9000 
C 11.4800 7.1603 8.5000 
C 10.6600 6.0401 11.9000 
C 9.0200 5.9303 8.5000 
C 8.2000 4.8101 11.9000 
C 6.5600 4.7003 8.5000 
C 5.7400 3.5801 11.9000 
C 4.1000 3.4703 8.5000 
C 3.2800 2.3501 11.9000 
C 1.6400 2.2403 8.5000 
C 0.8200 1.1201 11.9000 
C 13.9400 10.5207 8.5000 
C 13.1200 9.4006 11.9000 
C 11.4800 9.2907 8.5000 
C 10.6600 8.1706 11.9000 
C 9.0200 8.0607 8.5000 
C 8.2000 6.9406 11.9000 
C 6.5600 6.8307 8.5000 
C 5.7400 5.7106 11.9000 
C 4.1000 5.6007 8.5000 
C 3.2800 4.4806 11.9000 
C 1.6400 4.3707 8.5000 
C 0.8200 3.2506 11.9000 
C 13.9400 12.6511 8.5000 
C 13.1200 11.5310 11.9000 
C 11.4800 11.4211 8.5000 
C 10.6600 10.3010 11.9000 
C 9.0200 10.1911 8.5000 
C 8.2000 9.0710 11.9000 
C 6.5600 8.9611 8.5000 
C 5.7400 7.8410 11.9000 
C 4.1000 7.7311 8.5000 
C 3.2800 6.6110 11.9000 
C 1.6400 6.5011 8.5000 
C 0.8200 5.3810 11.9000 
C 13.9400 14.7815 8.5000 
C 13.1200 13.6614 11.9000 
C 11.4800 13.5515 8.5000 
C 10.6600 12.4314 11.9000 
C 9.0200 12.3215 8.5000 
C 8.2000 11.2014 11.9000 
C 6.5600 11.0915 8.5000 
C 5.7400 9.9714 11.9000 
C 4.1000 9.8615 8.5000 
C 3.2800 8.7414 11.9000 
C 1.6400 8.6315 8.5000 
C 0.8200 7.5114 11.9000 
C 13.9400 16.9120 8.5000 
C 13.1200 15.7918 11.9000 
C 11.4800 15.6820 8.5000 
C 10.6600 14.5618 11.9000 
C 9.0200 14.4520 8.5000 
C 8.2000 13.3318 11.9000 
C 6.5600 13.2220 8.5000 
C 5.7400 12.1018 11.9000 
C 4.1000 11.9920 8.5000 
C 3.2800 10.8718 11.9000 
C 1.6400 10.7620 8.5000 
C 0.8200 9.6418 11.9000 
C 13.9400 19.0424 8.5000 
C 13.1200 17.9223 11.9000 
C 11.4800 17.8124 8.5000 
C 10.6600 16.6923 11.9000 
C 9.0200 16.5824 8.5000 
C 8.2000 15.4623 11.9000 
C 6.5600 15.3524 8.5000 
C 5.7400 14.2323 11.9000 
C 4.1000 14.1224 8.5000 
C 3.2800 13.0023 11.9000 
C 1.6400 12.8924 8.5000 
C 0.8200 11.7723 11.9000 
