   96
 8.60913090000000e+00  8.60913090000000e+00  8.60913090000000e+00
 O  2.53409071538075e+00  8.22797864710778e+00  6.99403595464423e+00    -1.22419958722973e-01 -1.93860258384927e-03 -7.70191484986809e-01
 H  8.57841989383200e-01  7.16460508567087e+00  1.92085477088983e-01    -2.28023300171837e+00 -3.69560995793146e+00 -1.62349473218614e+00
 H  2.79895784553159e+00  5.14418344419172e+00  6.58536980679650e+00    -6.17169267491255e+00 -4.42157990659264e+00 -3.20285606562377e+00
 O  9.97835490867826e+00  9.18237125141000e+00  5.37991426097433e+00     5.95821027762670e-01  3.47500324296427e-01  3.19381277903817e-01
 H  1.62552341704706e+00  4.37962092610262e+00  7.39782801234783e+00    -4.29613429723439e+00  2.00001072688397e-01  2.54690446579021e+00
 H  8.27972984434654e+00  2.76260890735758e+00  4.50482708631189e+00    -1.19072387553414e+00  8.28173458243443e-01  2.79104182160965e-01
 O  2.20321159200434e+00  7.86661256025385e+00  3.73112938015278e+00     2.14419712553037e-01 -3.61991022864080e-01  6.05302400592005e-01
 H  8.46988397846926e-01  1.93210945014439e+00  7.50649357396809e+00     6.45508424072858e-01  7.47703950692188e-02  1.48617403532498e-02
 H  5.41219239839497e+00  6.68411154087004e+00  6.92611586876550e+00    -1.85625921539064e+00  6.09035154957969e-01  6.76207855550126e-01
 O -6.54692694595421e-02  1.78584199085982e+00  3.21901365792301e+00    -8.64420176991823e-01 -4.36842006008726e-01  4.15805994939522e-01
 H  5.14901213019134e+00  4.75123041353621e+00  8.21013477719341e+00     6.77791941833726e-01  2.88945099203886e-01 -1.89269838840705e-01
 H  4.88307320803800e+00  9.66444432804061e+00  7.42143903575920e+00     7.45206631523462e-01 -5.53874648551841e-02  2.43803657782639e+00
 O  2.14254651946072e+00  5.11273781559020e+00  7.28892648383996e+00    -2.92338761738063e-01 -6.95455709271830e-02 -2.30821997374294e-01
 H  3.76752182502806e+00  4.53771786215987e+00  2.28194012163991e+00     5.99022978730678e-01 -2.88878568645556e+00 -5.10181626942075e-01
 H -5.40621756521763e-01  6.37892257931023e+00  5.61629754326285e-01    -2.94272516467519e+00 -1.96701605824434e-01  1.10604392737386e+00
 O  7.87191731947136e+00  2.25342312556340e+00  7.34328849313762e+00    -8.35818415399439e-01 -1.14836993066571e-01 -7.34613228473352e-01
 H  6.75127382599993e-01  3.99999195589702e+00  6.74047438241041e-01     1.14194656788230e+00 -8.67482287243495e-01 -1.01178432027880e+00
 H  4.65996147825697e+00  4.26566534819559e+00  5.44319613386548e+00     9.43041680553590e-02  1.40045434884524e+00  3.86843214624309e-01
 O  1.22197034147072e-01  5.22106732027439e+00  3.35583834312746e+00     7.57793427665202e-01  2.60546529402153e-01 -1.56971295175438e-01
 H  6.36385600521783e+00 -8.72690339199427e-01  4.93416146328341e+00     8.11967988803631e-01 -3.42394617356407e-01  7.26664101266842e-02
 H  3.11024917019670e+00  5.70477260790336e+00 -2.26169894777021e-01    -2.97836840775139e+00  3.31736083870086e+00  8.93111608039565e-01
 O  3.42672372027877e+00  5.74989616902575e+00  6.37955333498882e-01    -3.57252630883643e-01  3.51883025396324e-01  5.30179881101785e-01
 H -5.17783660028581e-01  4.21964002569289e+00  4.32652818872448e+00     2.81398083535260e+00  1.40164976715641e+00 -3.33359613029356e+00
 H  7.08129340550448e+00  5.58233448544387e+00  6.04783098235294e+00    -7.34516480177726e-02 -2.42239770816620e+00  2.97073047983318e+00
 O  6.04206743275907e+00  1.51957310075083e+00  5.35167878704911e-01     2.04563158185832e-03  3.40176066606550e-01  5.35570918512541e-01
 H  4.93206060092636e+00  5.00087111139129e+00  2.94423567598931e+00    -6.48274265370448e+00  1.52368754703020e+00  2.37806818130011e-01
 H  2.94811261613722e+00  7.90679772779240e+00  4.46002243208756e+00    -3.75409818157871e-01 -7.64258409397174e-01 -6.24362792979914e-01
 O  2.74196507816514e+00  2.38044685749329e+00  3.65681032788381e+00     2.99812240762730e-01  6.19940532487587e-01 -2.75592614184332e-01
 H  7.57489122962592e+00  8.17673368708284e+00  9.71931174259423e+00     3.73899744517495e-01  5.03116977476689e-03 -2.43569844873795e+00
 H  8.68047115956431e+00  6.09610267696646e+00  6.65901152504126e+00    -1.36268077129043e-01  4.15339150482126e+00 -2.30092691619231e+00
 O  3.81661305744242e+00  2.80936359166874e+00  1.09076360843631e+00     2.33829490325523e-01  2.91297010405331e-01 -6.58130126438960e-01
 H  7.17861271192358e+00  3.59527547074004e+00  5.78046667988936e+00    -2.86699148731798e+00 -1.07662678315062e+00  7.21240174241936e-01
 H  6.87745601367685e+00  3.85880838186942e+00  1.65615095161998e+00     5.17734613293492e-01  6.90198064333411e-01  1.56089305215440e+00
 O  8.70831698802424e+00  1.07705868057797e+00  1.02036041358294e+00     3.04302389903709e-01  4.28564316636418e-01 -2.12519259753007e-01
 H  1.05437225072617e+01  8.59575419047168e+00  6.21338114484165e+00     7.15429445954685e-01  1.48456845401568e+00 -1.73737693164901e+00
 H  6.13742582946939e+00  7.67515299542807e+00  8.47976070033045e+00     3.50484594243740e-01 -3.33687662873386e-02  3.34681031109323e+00
 O  7.68195324021973e+00  7.52017614395509e+00  3.39337030478338e+00    -1.86173557651210e-01 -5.77752609260950e-01  1.01920265822221e+00
 H  2.34585081832233e+00  4.00994605605918e+00  1.24502529553104e+00     6.46669731878617e-01 -2.66381010396014e-01 -7.99975888889787e-01
 H  1.02951662232931e+01  1.10975012431629e-01  4.43851802689903e+00     7.25604844623055e+00 -2.25275974654515e+00 -1.61443019936241e+00
 O  4.82131230165834e+00  3.52497320410129e+00  6.02582039541069e+00     4.05692537063074e-01  4.14825218292616e-01 -7.74125704254062e-01
 H  5.43957122790813e+00  3.53627531772392e+00  9.30417739088907e+00     4.63422890545033e+00  2.06143088570486e+00  2.15653221946713e+00
 H  7.41790954009781e+00  1.93188014349330e+00  6.45115243143572e+00    -5.98972106174387e-01 -5.74701818904347e-02  4.46607238416222e-01
 O  1.76004824251523e+00  2.28832906123058e+00  7.71935692513933e+00     7.05685178955433e-01  5.52264216463941e-01  7.22381699858446e-01
 H  3.61703851504320e+00  1.87029311518378e+00  3.58288511375560e+00    -1.82065653392474e+00 -6.03234776290445e-01 -1.85551307421291e+00
 H  5.98784447572114e+00  9.42745605257386e-01  4.50075459274108e+00     2.35906287108672e+00  1.56832078745488e-01 -2.99556149209993e+00
 O  6.93702669471523e+00  7.61636307274062e+00  9.09856003291946e+00    -2.03020837098240e-01 -9.68205519719451e-01  1.23119648781955e-01
 H  3.11167680716314e+00  6.74231912594913e+00  7.76744145055402e-01    -1.17697423160962e+00 -3.07515440578970e+00 -2.56336468720101e+00
 H  8.29421287067199e+00  5.47756132698296e-01  4.13931602973379e-01    -6.48133865901344e-01 -5.01112159599933e+00  6.13524810966968e-01
 O  4.09341384063270e-01  6.36607409753835e+00  4.62154647090205e-01    -1.99161772289052e-01  3.26750092082407e-02  1.73898343803420e-01
 H  3.83229864558598e+00  3.32241915144820e+00  5.73750262515969e+00     2.90413210456961e-02 -1.64210953969247e+00 -3.14165316403272e+00
 H  7.23996220125434e+00  1.97586560367031e+00 -5.31716286040431e-01    -1.48834924265077e+00  6.49331554814518e-01  9.23948449719631e-01
 O  6.55275628822948e+00 -2.42899007286804e-01  5.59073354117326e+00     1.33068907183696e-01 -7.32490111583702e-01  3.90431184877231e-01
 H  4.95162530963595e+00 -1.31739514598327e+00  2.53161774209774e+00    -2.16092826923541e+00 -1.39320107580162e-01 -2.02393450946187e-01
 H  2.46760765840505e+00  1.02896240236918e+00  1.36658607869532e+00     8.08006852446639e-01 -1.73783343212978e+00  5.76264460386336e-01
 O  3.21228641971986e+00  5.18168291174455e+00  4.96963705740276e+00    -5.70305913357581e-03  5.82247525196854e-01 -1.50383890044608e-01
 H  1.18986569382037e+00  4.70240684116947e+00  1.60618541904793e+00     1.17724082030895e+00 -1.06162058937299e+00 -3.60729821284360e-01
 H  1.84721704188668e+00  2.63159386362665e+00  3.66721167748455e+00     4.90785234966320e-01  3.21965857729995e-01  1.12314127198644e+00
 O  4.16190087504559e+00  4.35647542145382e+00  3.12513050283141e+00     2.27606598809283e-01 -2.01063099241370e-01 -6.86737725503560e-01
 H  6.79153399989971e+00  1.66708847772556e+00  1.00323621026706e+01     2.11494395949604e-01 -7.74178132463090e-01  5.24891217673468e-01
 H  7.10090649236811e+00  2.68466356025432e+00  2.46053956827943e+00    -1.00758367705350e+00 -2.96332110217259e+00  1.67395773043833e+00
 O  4.18145092478738e+00  7.75162245935527e+00  2.30976294199713e+00     9.37070045038726e-01 -6.90380042501041e-01 -2.01973189892709e-01
 H  3.96922733618477e+00  6.97593854251844e+00  7.38063267637162e+00     3.22412751952660e+00 -1.26346526854000e+00 -4.05531872624441e-01
 H  3.91851109409585e+00  5.09481532625219e+00  4.31665006017523e+00    -4.01505896979827e+00  1.17132219432926e+00 -2.08548330696723e+00
 O  4.97269154199632e+00  7.10371307567756e+00  7.64923827786585e+00     5.38468419547357e-01  2.88089829088160e-01 -7.02028442314302e-01
 H  2.27013063773976e+00 -1.00593992969270e+00  2.84950689647179e+00    -2.87856011924793e+00  1.24097045726228e+00  2.40184112469280e+00
 H  3.54110856408326e+00  8.70591414729796e+00  1.79132832346034e+00    -2.61862399977262e+00 -3.08335177179615e-01  1.59947085113993e+00
 O  4.01079821317942e+00  1.01883814343331e+01  7.26538790847469e+00    -5.53065971863975e-01  3.53853287539147e-01  7.05874583853809e-02
 H  1.35238649935743e+00  8.50945732851495e-01 -4.85610346907696e-02     1.34192739917688e+00  6.64678692048348e-01 -5.24328453718606e-01
 H  7.10326482230716e+00  4.56749866694342e+00  5.56653486129941e-01     9.87207142588455e-01 -1.36660897972285e+00 -3.30805414632493e+00
 O  7.73060295263988e+00  4.13896594960317e+00  1.03540130202365e+00     7.31438316659166e-01 -1.02418183862235e-01  2.75756374133569e-01
 H -1.60925458723845e-01  1.14633559385151e+00  1.93697253222301e+00    -3.19165728337380e+00 -8.13694464483809e-01 -6.73957331362032e-01
 H  8.35571841154879e+00  7.93940251800723e+00  3.89651472744344e+00    -1.48447979957427e+00 -3.22287389000710e+00  5.38565778556277e-01
 O  7.72400429276255e+00  6.37286657546011e+00  6.51254306200915e+00     5.12421414603118e-01  6.16007956613449e-02  1.06351192842863e+00
 H  4.36265348091545e+00  1.09856239914069e+01  7.03980466650034e+00    -3.09943581117023e-01 -1.54739567448089e+00 -5.38077115028812e+00
 H  6.08622878096327e-01  6.09146339657911e+00  3.29088320367458e+00    -3.77185000793937e+00  2.43357785812487e+00 -7.66396645855397e-01
 O  5.76611231532589e+00  4.13734604652807e+00  8.52057019256194e+00     1.27701412236007e-01  1.28104732569449e-01 -3.88635136625534e-03
 H  7.22612661648355e+00 -5.57079149812042e-01  6.32764091800638e+00     2.04178269932524e-01  8.52251835711030e-01 -1.06042414473290e+00
 H  5.68424158886289e+00  2.51297064504957e+00  3.15161208514887e+00    -2.34020799951473e+00  1.24281984446892e+00 -9.86598953205444e-01
 O  5.34193939945557e+00  1.10029486155894e+00  3.69693403019768e+00     6.60736826292446e-02 -1.18648910789160e-01  2.99052313711135e-01
 H -7.04309269955591e-01  5.66526344939926e+00  3.85865384286126e+00     8.46771832446262e-01  2.71701529170430e+00 -1.12279944519441e+00
 H  7.19548564561418e-01  1.96503028431590e+00  3.87545347284356e+00    -2.99521797419033e+00  3.19599521419941e+00  9.62256840559669e-01
 O  2.44663293669021e+00  2.23282526456074e-01  8.85572865358721e-01    -2.28508537642710e-01 -8.28100113147031e-02  6.64178614011163e-01
 H  4.28867970394144e+00  2.47732299813844e+00  1.88901750558059e+00    -3.43113286586815e-01  3.68604134788393e+00 -6.59726796484879e-01
 H  5.20931814979794e+00  1.94458520366731e+00  6.51037219365763e-01    -9.79769354731754e-01  9.14019345405721e-01 -1.34192515626042e+00
 O  6.16915224102556e+00  5.69712280871677e+00  4.47732124727922e+00     4.27764296259997e-01 -7.90624855719635e-03  5.59848903508533e-01
 H  7.21406849179878e+00 -1.34390069744892e+00  2.59206595108753e+00    -2.67604359738786e+00  2.18084871408203e-01 -5.51734973572683e-01
 H  2.09205043760480e+00  7.46483212152478e+00  7.08222556274826e+00     1.83861312365218e+00  1.60492022695150e+00  1.06914703354633e+00
 O  1.37214510639358e+00  3.73697388863149e+00  1.39462159008101e+00    -7.62030131490485e-01 -2.07025836356182e-01  2.21657640191328e-01
 H  2.70468849200644e+00  1.92997108299288e+00  7.69962488561237e+00     3.31964075124774e-01  2.11480520132425e+00 -1.83165329574641e-01
 H  4.60828126976176e+00  4.17054488548639e-01  3.72810987126822e+00     9.55026818849381e-01  1.66550205059625e+00  4.37326111149028e-01
 O  7.82650584143733e+00  3.57283068287713e+00  5.05342678976485e+00    -2.44994308330865e-01  3.98594282770423e-02 -8.96485516263939e-01
 H  3.28496399789552e+00 -2.80923220404711e-01 -1.11417379202686e+00     1.97208572288444e+00 -1.89261103725212e+00 -8.94281906379652e-01
 H  2.35971271557391e+00  5.84978531640338e+00  4.82756330844270e+00     9.78587349392993e-01 -1.92151471075457e+00 -3.00108769858842e+00
 O  6.13508712240135e+00  2.97566181041584e+00  2.33114934575425e+00    -5.67943983976802e-01  8.34348706950672e-02 -1.20658454757609e-01
 H  3.53502022694877e+00  3.50851560658776e+00  3.19920975740245e+00     9.22462630426173e-01 -1.45467274088034e-03 -2.41283562946398e+00
 H  6.42755899838331e+00  6.47318903730163e+00  3.89136134123081e+00    -1.08616419475736e+00 -2.18553414672198e+00  1.10862325791216e+00
