6

N     25.8143     16.5718      7.6624
O     24.0707     17.2531      6.1129
H     25.2801     16.0463      8.4140
H     26.4403     17.1217      8.4765
C     24.9716     17.4893      6.9267
O     25.6228     18.8513      6.8172
6

N     25.8285     16.5213      8.2033
O     24.6135     17.1466      6.2248
H     24.7799     16.1301      8.5517
H     26.7832     17.0778      8.9033
C     25.3974     17.4746      7.1932
O     25.8740     18.7788      7.2529
