5

C      6.8429     29.3805     21.0761
O      7.1658     28.4491     22.1909
O      7.9735     29.8444     20.5889
O      5.6754     29.9256     21.0067
H      6.4143     28.0754     22.6742
5

C      7.0878     28.9103     21.0857
O      7.2073     27.8441     22.1849
O      8.1884     29.4638     21.5182
O      6.1529     29.7585     20.7191
H      6.2707     28.0630     22.4454
5

C      7.3040     28.7438     21.2385
O      6.8857     27.3387     22.0386
O      8.3745     29.3014     21.7568
O      6.4061     28.8177     20.2912
H      5.9779     27.1297     21.7795
5

C      6.7830     28.7987     21.3526
O      6.5585     27.4346     22.2595
O      8.0144     28.8690     21.7209
O      6.1014     28.7662     20.2169
H      5.6132     27.2307     21.8456
5

C      6.2713     28.1584     21.9923
O      7.3476     27.3136     22.7824
O      6.3806     29.0196     21.1215
O      5.3941     27.1040     22.0411
H      7.9828     26.9550     22.1055
5

C      7.0481     29.9192     21.5550
O      6.2790     29.4636     22.6529
O      6.8328     31.0523     20.9782
O      7.1364     28.8141     20.9945
H      5.8796     28.5193     22.5711
5

C      6.9855     29.7957     21.7297
O      5.7351     29.3628     22.2260
O      7.4709     31.0339     21.9033
O      7.2858     28.9508     20.8497
H      5.3716     28.5880     21.7901
5

C      6.7737     29.2758     21.7285
O      5.6149     28.9405     22.5180
O      7.2082     30.4449     22.1817
O      6.8316     29.0191     20.4680
H      5.0553     29.8262     22.6372
5

C     25.6463     45.3183      3.6295
H     24.6196     45.6458      5.0248
O     24.6973     44.4310      3.6602
O     25.0432     46.3680      4.7941
O     26.1242     45.5810      2.4372
5

C      6.3297     29.2654     21.0769
O      5.2223     28.4272     21.6442
O      6.8288     29.9594     22.1036
O      6.6766     29.0512     19.9175
H      4.8505     29.1406     22.3378
5

C      5.4704     28.6279     20.8773
O      4.5499     27.5056     20.9385
O      5.9068     29.1758     22.0340
O      6.0207     29.1022     19.7724
H      4.4906     27.1067     21.9516
