20

O     20.7250     47.2136      7.3155
C     18.9616     42.1260      5.9078
C     18.3530     44.3514      5.2312
C     17.6872     45.2517      4.3248
C     18.4205     42.6949      7.0666
O     18.5548     43.0103      4.9812
H     20.0538     41.4544      5.8141
C     21.1192     49.7861      8.2786
O     18.3381     43.7090      9.3185
O     18.1953     44.8272      3.1866
C     18.1858     45.6761      5.6196
C     18.1593     47.6714      6.9604
O     17.0187     48.2631      6.5909
C     18.3196     42.9745      8.2480
O     18.6479     49.9812      7.5373
C     20.3055     48.2732      7.8555
O     20.4376     50.7672      7.9204
O     22.4109     49.6994      8.1813
C     18.9555     48.7447      7.7672
O     18.2635     46.3121      6.9129
20

O     21.0548     47.7831      6.6723
C     18.9657     42.6231      6.3114
C     17.9492     44.6512      5.1228
C     18.3460     45.5181      4.2394
C     18.5708     42.8672      7.5007
O     18.2263     43.1961      5.3166
H     19.4984     41.8568      6.4053
C     21.0916     49.7084      7.9861
O     18.0134     43.8277      9.4943
O     18.6982     45.1186      2.9861
C     18.0216     46.0057      5.5435
C     17.9107     48.2807      6.4358
O     17.1470     48.6446      5.5137
C     18.1148     42.9250      8.6901
O     18.6608     49.9199      8.2244
C     20.3235     48.4956      7.3907
O     20.8476     50.6975      7.2830
O     22.0852     49.5350      8.8463
C     18.8451     48.8049      7.6364
O     18.5367     46.8563      6.5271
20

O     20.6200     47.6840      6.9968
C     19.3265     42.9963      6.3578
C     17.3419     44.5647      5.0876
C     17.6992     45.1595      3.7981
C     18.9698     43.2527      7.8738
O     17.9544     43.2371      5.4395
H     20.1179     42.2928      6.0824
C     21.4030     50.0266      7.5039
O     17.3874     43.1731      9.7013
O     18.7477     44.9907      2.9941
C     17.5921     45.9804      5.0506
C     17.9036     48.3905      5.9345
O     17.2508     49.1823      5.1765
C     18.2303     43.2734      8.8099
O     18.4049     49.5838      7.7561
C     20.5025     48.9047      7.2629
O     21.2497     51.0193      6.6324
O     22.4975     49.4979      8.1698
C     18.9690     49.0005      6.8395
O     18.0492     47.0083      5.9228
