27

O     18.0044     65.5568     21.1175
O     21.8522     63.4981     22.3197
C     23.9459     66.7350     19.7061
C     22.6653     66.8368     19.8114
C     21.1725     66.5899     19.7310
C     25.2594     66.4464     19.6188
C     21.1881     65.3640     23.7233
C     19.2970     65.4952     21.0425
H     20.4272     62.3014     24.5505
H     21.3812     63.7603     25.7982
C     21.2156     64.0634     23.4929
C     26.3841     69.2479     20.0808
N     21.4671     66.6068     23.2802
O     26.3486     70.4525     20.5155
O     26.3824     66.3898     21.9349
O     26.4745     67.0422     16.1198
C     26.1702     66.8839     17.3167
C     20.6101     66.4276     21.0971
C     21.3211     66.7657     21.9937
C     26.2270     67.1747     18.6521
C     20.8602     63.4516     24.7645
H     21.4352     63.4698     21.2719
O     20.3044     64.6035     20.1450
H     19.8941     64.4009     19.2465
C     25.9534     66.8618     20.8627
C     26.5466     67.9207     19.8718
O     20.1711     66.8202     18.8370
27

O     18.8348     65.5976     21.5063
O     21.5537     63.5993     22.0494
C     23.7406     66.7900     19.3660
C     22.5908     66.6623     19.3548
C     21.2067     66.6531     19.1350
C     25.1556     66.9537     19.3434
C     21.6548     65.2804     23.8426
C     19.5620     65.5016     20.5201
H     20.0082     62.6830     23.7802
H     21.0207     62.3203     24.8799
C     21.4648     63.9816     23.4030
C     27.0329     69.1142     20.0799
N     22.0345     66.5040     22.8579
O     26.9262     70.2217     20.6571
O     26.4816     66.5182     21.7781
O     26.3404     66.2800     16.3337
C     26.4729     66.9141     17.3683
C     20.7105     66.4259     20.6367
C     21.4511     66.5226     21.8000
C     26.1759     67.6138     18.5415
C     20.6845     63.3537     24.4806
H     20.6341     63.7951     21.7044
O     20.2057     64.3269     19.7630
H     19.2449     64.1912     19.2612
C     26.0395     66.9866     20.7229
C     26.9961     67.8086     19.7757
O     20.1436     66.9620     18.5904
