28

C     33.4243     10.4365     22.6847
O     29.9102     12.0369     24.7723
O     34.6982     10.2666     22.4945
H     28.7582      8.6116     26.6968
O     33.8486      8.1483     24.9542
C     31.6085      6.4870     24.3158
C     30.2546     10.5077     24.3524
O     30.0026      6.8478     28.3379
C     33.7646      6.9103     25.1510
O     26.2366     10.1593     25.2223
C     31.2815      7.8837     23.7202
C     31.6239     10.3681     23.7074
C     32.6758      9.1246     21.9458
H     34.4024      5.1483     24.5459
C     32.3502      6.5085     25.7213
C     31.1276      7.3780     26.0274
C     29.7824      9.3591     24.9649
C     32.8749     11.1803     23.8104
C     30.5005      6.9436     27.2152
H     30.4932     12.0784     25.7956
O     32.7671      8.6024     20.7679
C     28.4915      9.2766     25.8585
C     27.3015      9.5971     25.5159
C     31.6406      9.0213     22.9573
O     31.4447      5.3529     23.7475
O     34.5016      5.6848     25.4217
O     33.6944     12.0726     24.3929
C     30.6941      8.2146     24.9931
28

C     33.6650     10.5616     22.3641
O     29.7106     11.9929     25.0444
O     34.8412     10.5739     22.7575
H     28.3781      8.8922     26.5069
O     33.7690      7.4323     24.2882
C     31.5105      6.3752     23.9696
C     30.4443     10.7075     24.8958
O     29.8381      6.2614     27.9961
C     33.4745      6.6081     25.1321
O     26.8013      9.5356     24.7089
C     31.2439      7.8378     23.7028
C     31.4643     10.2877     23.7389
C     32.8341      9.2534     22.2130
H     33.4052      5.4191     26.7783
C     32.0517      6.0092     25.2377
C     30.9204      6.9828     25.8436
C     30.1025      9.4322     25.3783
C     32.6547     11.0721     23.3082
C     30.4178      6.3832     26.9238
H     30.1395     12.8514     25.2603
O     32.4727      8.7077     21.0741
C     28.8006      9.7977     25.8985
C     27.7397     10.2734     25.0991
C     31.8125      9.0542     23.1482
O     31.9607      5.1768     23.4461
O     34.3030      5.8590     26.4044
O     33.2522     12.1484     23.8222
C     30.4837      8.0013     24.9266
