29

C     33.6062     10.3627     22.5481
O     30.5438     11.9322     25.8775
O     34.7295     10.3999     22.0011
H     30.1363      8.9728     27.2771
O     33.6628      5.3907     26.2105
H     32.5871     11.7092     25.2613
C     31.5480      6.8734     23.3173
C     30.9053     10.7547     25.1107
O     30.2063      6.0322     27.6078
C     33.6251      5.7309     24.9308
O     27.3561      9.8731     25.2421
C     30.9445      8.3388     23.4780
C     31.6604     10.8213     23.9058
C     32.3683      9.6925     21.9923
H     35.6190      5.2005     24.2484
C     32.2754      6.2509     24.3871
C     31.1675      6.8094     25.3227
C     30.7715      9.4726     25.5458
C     33.1249     11.1934     23.6803
C     30.5853      6.6620     26.5350
H     29.7103     11.8287     26.6514
O     32.4287      9.9945     20.7130
C     29.6136      9.5355     26.5599
C     28.2859      9.7838     26.0836
C     31.3551      9.7403     23.0198
O     31.5680      6.5876     22.0004
O     34.5810      5.6579     23.8864
O     33.2611     12.0750     24.7508
C     30.7828      8.2149     24.8296
29

C     33.5597     10.3189     22.6069
O     30.9789     11.8493     25.8121
O     34.6639     10.4790     21.9053
H     29.3816      9.0532     27.8046
O     33.2378      5.9381     26.1927
H     33.7217     12.5539     24.1071
C     31.6802      6.6690     23.2587
C     30.8413     10.5135     25.1018
O     29.6928      7.0949     27.0727
C     33.3559      5.7251     24.9455
O     26.7576      9.8427     26.0226
C     31.4521      8.1782     23.4823
C     31.8556     10.3151     24.1567
C     32.4658      9.7733     21.6749
H     35.1103      5.0115     24.2314
C     31.9727      6.0889     24.5939
C     31.3347      6.7844     25.5394
C     30.3133      9.2751     25.4366
C     33.2804     10.7312     23.9033
C     30.6588      6.3745     26.5607
H     30.1343     12.0870     26.4288
O     32.1563     10.0539     20.4539
C     29.2048      9.2664     26.5521
C     27.9772      9.5206     26.2966
C     31.8403      9.3438     22.9481
O     30.8539      5.6161     22.8578
O     34.4599      5.7696     23.9841
O     33.9757     11.7818     24.6360
C     30.8145      8.0366     24.8169
29

C     33.3897     10.2122     22.4158
O     30.3231     11.7031     25.5360
O     34.4799     10.5661     21.8363
H     29.3594      9.3534     27.4761
O     34.4156      6.4636     26.2530
H     34.3300     11.8396     24.7315
C     31.1829      6.1263     23.8463
C     30.7384     10.3018     25.1056
O     29.5703      7.5051     27.5216
C     33.5550      6.3693     25.2205
O     26.3133      9.7164     26.1274
C     30.7755      7.5941     23.5696
C     32.0314      9.9366     24.4324
C     32.3897      9.1502     22.2061
H     34.8407      5.0575     24.6139
C     32.2309      6.5271     24.9546
C     31.1097      7.1710     25.6692
C     29.7755      9.2762     25.0730
C     33.0149     10.8399     23.7597
C     30.2598      6.6675     26.7712
H     29.4174     11.7185     25.1539
O     32.0147      9.1506     20.7949
C     28.8769      9.4167     26.3130
C     27.5576      9.7428     26.1926
C     31.7896      8.7002     23.4040
O     30.6011      5.0443     23.5097
O     34.0968      5.3640     24.2698
O     34.2553     11.6758     23.8653
C     30.0557      7.8994     24.8731
29

C     33.6339     10.3544     22.4888
O     30.6229     11.7997     25.2632
O     34.8155     10.6057     22.0291
H     28.7365      9.6119     27.1791
O     34.4276      7.5964     25.7677
H     32.3064     12.3738     24.9723
C     31.4445      6.1779     24.0002
C     30.8650     10.2878     24.8726
O     29.5809      7.4179     27.7706
C     33.6097      6.6462     25.6183
O     26.0498      9.9967     25.2566
C     31.0981      7.5968     23.6842
C     31.8521      9.9213     24.0351
C     32.7852      8.8846     22.0163
H     33.7655      4.4674     25.5180
C     32.2140      6.6746     25.1106
C     31.2495      7.2477     26.0454
C     29.9045      9.3522     25.1350
C     32.8624     10.8082     23.5861
C     30.7148      7.2735     27.2578
H     29.5587     11.6437     25.2538
O     32.6254      8.5940     20.8417
C     28.4829      9.5611     26.0464
C     27.2025      9.8126     25.7017
C     31.7579      8.7081     23.0299
O     30.7666      4.9877     24.0961
O     33.6059      5.1451     24.8323
O     33.1526     11.9103     24.6219
C     30.5567      8.0765     24.9807
