30

C     33.9171     10.9000     23.0332
O     30.8819     12.2123     25.3169
O     35.1803     10.7422     22.6955
H     30.0813      9.8679     28.0120
O     34.8546      6.3577     26.4629
H     33.6532     13.4677     23.6724
C     32.3380      7.1757     23.5949
C     30.9978     10.7420     25.2512
O     31.3502      5.3700     27.8179
H     32.5256      6.8078     21.6043
C     34.0118      6.3746     25.4761
O     27.1246      9.3462     26.5158
C     31.6581      8.4946     24.1181
C     32.1341     10.7472     24.3623
C     32.9541      9.8365     22.2349
H     35.7515      6.1095     24.6991
C     32.7576      6.6064     24.8627
C     31.7668      6.9534     25.9249
C     30.3686      9.4848     25.7678
C     33.0880     11.6524     23.9023
C     31.3792      6.4253     27.1188
H     30.1059     12.2665     25.9615
O     32.6801      9.5408     21.0338
C     29.4603      9.8253     26.9975
C     28.3042      9.5159     26.7745
C     31.9582      9.6763     23.3323
O     32.6120      6.4528     22.5094
O     34.9297      5.8519     24.2720
O     33.3326     12.9988     24.5043
C     31.1216      8.3432     25.3098
30

C     33.7740     10.5221     22.7830
O     30.5935     12.7159     25.6134
O     35.0517     10.5008     22.9791
H     30.7333     10.0889     27.9858
O     34.2301      6.0759     26.4567
H     34.5755     12.3977     24.2934
C     32.0828      6.9695     23.5947
C     31.0430     11.3854     24.9628
O     31.4686      5.7424     27.3932
H     33.0673      5.5565     22.5853
C     33.8537      6.1294     25.1996
O     27.9921      9.5752     26.2825
C     31.5969      8.3189     23.8847
C     31.6705     10.9253     23.7618
C     32.7272      9.7541     21.9891
H     35.6053      6.2833     24.0794
C     32.6908      6.7630     24.8777
C     31.6849      7.4453     25.7398
C     30.7654     10.0241     25.4928
C     32.9442     11.5159     23.3461
C     31.0178      6.3902     26.5522
H     30.8359     12.9523     26.5484
O     32.3434      9.2822     20.8017
C     30.2904      9.8241     26.9548
C     29.1101      9.2546     26.8719
C     31.8219      9.5900     23.1905
O     32.1970      6.0209     22.5829
O     34.7314      6.5851     23.8455
O     33.4464     12.5831     24.2182
C     30.8994      8.5733     25.1925
30

C     33.7120     10.7370     22.7909
O     30.6169     12.4287     25.6628
O     35.0030     10.8121     22.3819
H     30.3173      8.8709     27.9881
O     34.3234      5.5321     26.1342
H     34.4495     12.8703     23.5877
C     31.9326      7.3931     23.4642
C     30.7206     11.1692     24.9942
O     31.3706      5.9544     26.9914
H     32.6384      5.6440     22.1647
C     33.6193      5.8486     25.0931
O     28.1386     10.0598     25.9556
C     31.3557      8.6927     23.4759
C     31.5803     10.8234     23.7136
C     32.6918      9.9586     21.9573
H     35.2154      5.7730     24.1119
C     32.5653      6.9129     24.6631
C     31.8536      7.6990     25.5600
C     30.7584     10.0154     25.7763
C     32.8280     11.3983     23.7400
C     31.7766      6.9744     26.6870
H     30.3798     12.0871     26.6668
O     32.6719      9.1170     21.0181
C     30.1035      9.7404     27.3318
C     28.8155      9.8845     27.0153
C     31.5006      9.5900     22.7272
O     31.8905      6.4064     22.3762
O     34.3422      6.0586     23.8353
O     33.5869     12.4595     24.2816
C     31.1272      8.9303     25.0480
30

C     33.6077     10.5837     22.7315
O     30.3207     12.2089     25.3249
O     34.8728     10.6486     22.4408
H     29.6032      9.2574     28.0996
O     33.5806      5.7920     26.0641
H     33.8987     13.0663     23.5074
C     31.8363      7.2188     23.1686
C     30.6134     10.8059     25.0025
O     30.6676      5.9953     27.8976
H     32.3983      5.9976     21.8820
C     33.4831      6.0600     24.7609
O     27.8900     10.0284     25.6992
C     31.0559      8.2988     23.7294
C     31.8658     10.5753     24.0861
C     32.6367      9.6591     21.9193
H     35.3040      5.4880     24.1003
C     32.3542      6.8261     24.4642
C     31.3581      7.1220     25.6927
C     30.1999      9.6203     25.7541
C     32.9819     11.3419     23.8439
C     31.1903      6.6454     26.9834
H     30.3685     12.2356     26.3662
O     32.4402      9.2459     20.7520
C     29.3363      9.3506     26.9863
C     28.1800      9.6428     26.8066
C     31.5366      9.5190     23.0628
O     31.7485      6.9180     21.6779
O     34.1911      5.4511     23.6741
O     33.8030     12.4520     24.3935
C     30.8974      8.3175     25.1628
