27

C     34.1708      9.8416     22.9139
O     30.2527     11.6002     24.0724
O     35.4547      9.7693     22.8361
H     29.0241      8.6830     27.1911
O     33.8404      6.9118     23.7370
C     31.2803      6.8299     22.7515
C     30.8348     10.6304     24.7421
O     29.5927      6.0791     27.6198
C     32.9216      6.6876     24.5641
O     26.9279     10.0881     25.4134
C     31.1411      8.0710     23.6998
C     32.0996     10.4711     23.9399
C     32.9947      9.0300     22.3592
H     32.5491      5.1963     26.1519
C     31.4070      6.5336     24.2323
C     30.1458      6.9972     25.2214
C     30.1448      9.6383     25.5297
C     33.2364     11.1089     23.6874
C     29.7225      6.4913     26.4377
O     32.3991      8.6459     21.2166
C     29.0755      9.4779     26.5894
C     27.8391     10.1608     26.2757
C     32.0954      9.1561     23.5769
O     31.6492      6.0052     21.9188
O     32.8788      6.0697     25.8583
O     33.6095     12.0590     24.4911
C     30.4167      8.3674     24.8764
27

C     34.7321     10.3560     23.3304
O     31.3107     12.6939     24.0080
O     35.9340     10.4874     22.9545
H     29.9896     11.0554     27.1359
O     32.6785      5.6710     23.3677
C     31.3087      7.3091     22.0476
C     31.1844     11.3867     24.1295
O     28.9232      7.2079     26.6126
C     31.9777      6.2337     24.2080
O     27.2739     10.2059     26.5079
C     31.4376      8.6509     22.8518
C     32.4833     10.8776     23.7723
C     33.8675      9.3206     22.6968
H     32.3114      6.9115     26.0625
C     30.9254      6.7427     23.4201
C     30.2401      7.5416     24.3287
C     30.6031     10.2136     24.9446
C     33.8899     11.2414     24.2320
C     29.6310      7.0647     25.5846
O     34.6412      8.3026     22.4903
C     29.8824     10.4253     26.1964
C     28.5475     10.3810     26.3040
C     32.3936      9.6089     23.0819
O     30.7091      6.4551     21.3028
O     32.0232      6.0041     25.6184
O     33.7397     12.3217     24.9698
C     30.6970      8.9933     24.0262
27

C     34.6908     10.3111     23.1640
O     30.7975     12.6770     24.2244
O     36.0198     10.3037     23.3234
H     30.4736     10.7278     26.1485
O     33.3197      6.3023     24.1303
C     31.1444      7.9534     22.3307
C     31.4648     11.5702     24.3866
O     29.6170      7.9813     26.9485
C     32.2189      6.7407     24.3464
O     27.9177     11.1096     27.7742
C     31.2366      9.5537     22.5759
C     32.7287     11.2091     23.9140
C     33.7835      9.1911     22.6645
H     32.0219      5.6717     26.4940
C     31.0339      7.4924     23.7112
C     30.3086      8.4242     24.5885
C     30.0339     10.6284     24.4347
C     34.1819     11.3409     23.9057
C     29.9514      8.0916     25.8509
O     34.1266      7.9918     22.7090
C     29.4866     10.6458     25.7486
C     28.6219     11.0674     26.8248
C     32.5381     10.0834     22.9612
O     31.1716      7.3361     21.1992
O     31.4849      6.0426     25.7044
O     34.8220     12.0894     24.7125
C     30.3412      9.6350     23.8137
27

C     34.8230     10.4344     23.5015
O     31.0499     13.1293     24.5333
O     36.0772     10.7307     23.4504
H     30.0300     11.9863     26.0780
O     33.1175      6.0704     24.7262
C     31.3727      7.9288     22.7430
C     30.9699     11.9067     24.1120
O     29.5274      7.8100     26.9113
C     31.9634      6.4152     24.5598
O     27.2329     10.8992     26.6745
C     31.4320      9.3507     22.6361
C     32.4415     11.4209     23.4574
C     33.7562      9.4590     22.8888
H     31.4516      5.7529     26.8648
C     31.1026      7.2661     24.0222
C     30.2665      8.3874     24.5232
C     30.0511     10.7760     24.3931
C     33.8276     11.4235     24.0254
C     29.5590      8.2873     25.7368
O     34.2743      8.2750     22.4616
C     29.7162     10.8847     25.8568
C     28.4589     10.9951     26.3369
C     32.5284     10.1686     22.7035
O     31.2440      7.6067     21.5052
O     31.1969      6.0739     25.8479
O     34.3985     12.4096     24.6064
C     30.5034      9.6336     23.8273
27

C     34.5305     11.3807     23.0248
O     31.1273     13.0919     24.6992
O     35.6599     11.0575     23.5374
H     29.5494     12.2611     25.3530
O     33.1031      6.3144     24.5397
C     31.5484      7.5999     22.7443
C     31.2300     12.0705     24.0039
O     29.4734      8.0643     26.9855
C     31.9814      6.4162     25.0225
O     27.2124     10.7053     25.9971
C     31.4592      9.0234     22.8656
C     32.5523     11.6064     23.2719
C     33.9052      9.9979     22.6537
H     31.3322      6.6280     26.8862
C     31.0555      7.1495     24.0527
C     30.4256      8.2390     24.7572
C     30.6758     10.7429     24.5582
C     33.7122     12.2276     23.9976
C     30.0829      7.5911     26.0009
O     34.7095      8.9870     22.4812
C     29.5028     11.3473     25.2015
C     28.3220     10.6301     25.4649
C     32.5450     10.2095     22.8268
O     31.5847      6.9706     21.5932
O     31.5081      5.7868     26.3877
O     33.7626     13.0033     25.0116
C     30.9647      9.4707     24.2332
