28

C     33.6750     10.6783     22.7012
O     30.5169     11.5359     23.8983
O     34.8903     10.3662     22.3194
H     29.0342     10.2781     27.0944
O     33.8408      7.5488     24.1057
C     31.3701      6.1632     23.0769
C     31.0317     10.4258     24.7675
O     29.5695      5.9346     27.9263
C     33.1522      6.6533     24.5842
O     26.8290     10.3221     25.1419
C     31.2580      7.9795     23.9411
C     32.1947     10.1871     24.2203
C     32.6169      9.5058     22.1522
H     32.8845      5.0714     25.8504
C     31.5982      6.6245     24.3935
C     30.8156      6.8097     25.9068
C     30.2670      9.4970     25.5889
C     33.2525     11.2311     23.9316
C     30.3276      6.2220     26.9687
H     29.8756     10.8705     23.5008
O     32.5386      8.8572     21.0002
C     28.9499     10.0278     25.9136
C     27.8741      9.6336     25.1451
C     31.9870      9.1232     23.3042
O     32.1688      5.4523     22.4716
O     33.2389      5.9339     26.0476
O     33.0479     12.5264     23.8379
C     30.5991      8.0906     25.3345
