47

C      2.1773     25.9538     29.9512
C      3.9819     27.5795     32.1702
C     -3.6317     28.4180     31.0253
C      2.2076     28.2594     25.3617
C      4.2511     29.7313     24.5513
C      3.9895     26.6663     25.9222
C      2.3881     26.8723     25.6575
C      1.8190     27.6091     31.6194
C     -1.1194     28.2655     33.8818
C     -0.0437     26.9886     30.2104
C      0.9063     26.6003     34.2030
C      1.3784     27.1868     32.9397
C      1.3861     27.0961     30.4154
C      2.9628     28.5471     31.7455
O      1.7888     25.0374     27.9820
O      4.7811     23.7366     28.6338
O      1.8825     25.7716     25.2513
C      1.0419     25.4967     35.2146
C      3.8918     24.6983     28.9796
C      4.4040     25.6504     26.9326
O      5.9567     26.6776     24.1836
O      4.8995     28.9250     23.8592
O      6.0364     25.3751     28.5341
H      6.5379     25.6355     26.5270
C      5.8092     25.4869     27.2630
O      4.2937     31.2115     24.7654
O     -0.2252     26.0316     29.0195
O      4.1611     25.2816     31.5254
O      1.8414     31.4341     26.5836
H      3.4698     31.5741     24.4509
H      4.9590     24.5731     31.3104
C      3.4516     25.3715     30.1974
C     -1.0887     27.7530     30.7119
H      1.4563     30.5234     23.7064
O     -4.5621     28.4048     31.8636
C      0.1838     27.4350     33.3918
O      1.5172     31.1348     24.4053
O      0.8675     24.8522     36.1468
C      3.0034     29.5095     25.3552
O     -2.0080     27.7821     35.1160
C      1.2131     25.7738     28.9663
C      3.3371     24.9916     27.6010
C      2.1487     30.5929     25.5753
C      4.9050     26.6532     24.8639
O      0.9637     28.5829     25.6079
O      5.1187     27.0277     32.6182
C     -2.3908     28.3108     30.8028
