54

C      2.4047     26.3154     30.3315
C      4.2635     28.5970     32.7969
C     -2.8231     27.3477     30.1912
C      2.3692     27.4515     25.1849
C      3.1559     29.4543     23.8572
C      4.4919     26.0224     25.9079
C      3.4338     26.6633     25.5649
C      1.9027     28.2957     32.0799
O     -1.7138     26.9336     35.4283
C     -1.0672     28.2062     34.9167
C      0.3095     26.9361     30.2121
C      0.3520     27.4065     34.3811
C      1.3212     28.1052     33.3724
C      1.4652     26.9851     30.8428
C      3.1797     28.6847     31.8705
O      2.5443     25.0412     28.1060
O      5.7014     26.2803     29.6404
C      0.7685     26.2678     35.0147
C      4.6388     25.7301     29.3804
C      4.9667     25.6306     27.1366
O      5.9767     26.9415     23.8600
O      2.5526     29.7464     22.7722
O     -2.8690     28.6540     30.8811
O      6.7769     25.8653     25.8461
H      7.0027     26.0415     28.0918
C      6.3049     25.8364     27.2078
O      4.3510     29.6723     24.6825
H     -6.1489     26.8352     31.8043
O      1.2609     24.2844     30.0558
O      4.0654     25.1756     31.7039
O      1.7084     30.6524     26.4007
O     -6.3152     27.6722     31.9276
H     -1.0550     26.1316     35.6031
H      5.1556     29.8760     23.9643
H      3.3190     25.3545     32.4565
C     -5.0459     28.3210     31.6766
C      3.6431     25.8207     30.5953
C     -0.4566     27.1077     29.1171
H     -0.6626     29.8823     24.4583
O     -3.3227     26.0989     30.4171
C      0.4707     27.1540     32.8911
O      0.2300     29.6060     24.6490
O      0.7410     25.4447     35.8868
C      2.3988     28.9706     24.8597
O     -1.2629     29.4132     34.7556
O     -0.6426     26.4769     32.0533
C      1.8898     25.1761     29.3347
C      4.0329     25.3627     28.0968
C      1.4247     29.8055     25.3627
C      5.8269     26.3865     24.9231
C     -4.2150     28.8659     31.0719
O      0.9989     27.5098     25.1088
O      4.8636     28.5629     33.8623
C     -1.6590     27.2965     29.5906
