9

O     11.8573     21.5255     17.1387
H     10.3906     19.4773     17.0139
O     13.3668     20.2161     18.2448
H     12.5194     22.2907     17.2240
O     12.3592     18.8095     14.3914
O     10.6400     19.4029     16.1544
C     12.0186     20.0255     15.8546
C     12.4468     20.0249     14.7957
C     12.6181     20.3174     17.2622
9

O     11.6111     22.2122     16.9448
H     10.4969     19.4419     16.9706
O     12.9524     20.8513     18.2158
H     11.9677     22.6442     17.7545
O     12.3136     18.3365     14.7024
O     10.8595     19.0200     16.0705
C     12.2321     20.0824     16.0475
C     12.6484     19.5399     14.9880
C     12.5593     21.1177     17.0682
9

O     11.4204     22.3027     16.6750
H     10.1165     19.9984     16.1541
O     12.9765     20.8238     17.7352
H     11.4795     22.7430     17.4740
O     13.3309     18.3822     14.8851
O     10.6857     19.3454     16.2088
C     12.2834     19.8986     16.0884
C     13.2071     19.1640     15.8027
C     12.1744     21.1142     16.7407
9

O     11.5375     22.4256     16.7032
H     11.1218     18.4781     15.7556
O     13.1135     20.9150     17.6628
H     11.5347     23.0052     16.1129
O     13.8435     18.6177     14.8671
O     10.7677     19.4834     16.0306
C     12.0434     20.0011     16.0128
C     12.9941     19.2997     15.5390
C     12.2532     21.2046     16.7282
9

O     12.0787     22.5844     16.4318
H     10.6403     18.6717     15.5802
O     13.4144     20.7810     17.8318
H     11.3315     22.9148     16.7522
O     13.9468     19.2311     14.7712
O     10.7434     19.6119     15.7738
C     12.0688     19.9542     16.3000
C     12.9556     19.5991     15.5202
C     12.6250     21.2308     17.0267
9

C     11.8186     65.7072      4.0558
C     12.9092     65.9141      3.8871
O     10.5792     66.4307      1.8638
O     10.6237     64.6922      4.8379
C     11.0975     67.0082      2.9422
O     14.2749     65.9939      3.4492
O     11.5777     67.9851      3.6539
H     15.0840     65.5423      3.9193
H     10.9988     65.1720      5.6576
9

O     11.9347     22.2319     16.8102
H     10.5345     19.6276     15.0815
O     12.9444     20.2727     18.1116
H     12.1126     22.6544     17.7021
O     14.4307     19.7032     14.6064
O     10.9037     19.5627     15.9813
C     12.4379     19.9264     15.9409
C     13.2655     19.9149     15.0842
C     12.3102     20.8264     17.2411
9

O     11.9913     21.9795     16.8143
H     10.8537     18.8445     15.0846
O     12.8202     19.8556     17.9384
H     11.7083     22.3042     17.5957
O     13.9497     20.1934     13.9798
O     10.8394     19.6993     15.3994
C     12.2083     19.7230     15.7958
C     13.5995     19.8110     15.2054
C     12.2443     20.5722     17.0004
9

O     11.3547     21.5069     16.8193
H     12.0186     18.9468     14.3116
O     12.4884     19.5807     18.4198
H     11.1443     21.9776     17.6822
O     14.0179     20.3339     14.2059
O     11.1880     19.1416     14.8553
C     12.3519     19.7950     15.9427
C     13.0392     20.1495     15.0727
C     12.3312     20.2276     17.3311
9

O     11.3236     21.3038     17.5061
H     11.6141     18.2794     15.1479
O     11.5817     18.9866     18.2117
H     11.4712     21.1406     18.4820
O     14.5239     20.1168     14.9526
O     11.1156     19.1695     15.1322
C     12.3673     19.6655     15.9389
C     13.7132     19.9648     15.9177
C     11.6123     19.7705     17.2633
9

O     11.2064     21.0884     17.0982
H     12.2900     19.2797     13.9825
O     11.2872     18.5323     17.2430
H     11.3395     21.6480     17.8590
O     14.0996     21.3340     15.5281
O     11.8416     19.0724     14.7578
C     12.4080     19.7214     16.1020
C     13.2776     20.4693     15.8316
C     11.6665     19.7276     17.4959
9

O     10.7011     20.4320     16.8159
H     12.8591     18.9817     13.8770
O     11.5358     18.3752     17.1920
H     10.3967     19.9018     17.5716
O     13.6437     22.1213     15.3946
O     12.0454     18.8168     14.3351
C     12.3737     19.9130     15.3736
C     13.0370     20.9878     15.2255
C     11.7177     19.4415     16.6100
9

O     10.9241     20.3372     16.7548
H     11.6889     18.2400     13.5552
O     12.8493     18.6709     16.5204
H     11.3141     19.9666     17.6460
O     13.5641     22.0135     15.0243
O     12.5986     18.7800     13.6978
C     12.3637     19.7623     14.7765
C     13.0183     20.9069     14.8228
C     11.9244     19.4022     16.1537
9

O     11.3892     20.2516     15.9508
H     11.6047     18.5625     13.4128
O     13.0298     18.2775     16.4409
H     10.5894     19.7320     16.1271
O     13.5343     22.2753     14.0317
O     12.4593     18.8552     13.1661
C     12.8447     19.7458     14.3281
C     13.3157     21.0835     14.0746
C     12.5811     19.1889     15.7215
9

O     11.2469     20.1429     15.4561
H     11.4487     18.7515     13.3364
O     13.0598     18.5447     16.3900
H     10.5603     19.8187     16.2026
O     14.3127     21.8576     14.8628
O     12.4409     18.8507     13.2653
C     13.2644     19.6729     14.2912
C     13.8904     20.8654     14.2880
C     12.6080     19.3791     15.5430
9

O     11.2869     20.4528     15.8401
H     12.0235     19.8780     12.4158
O     13.2911     19.0016     16.4751
H     11.2780     20.1123     16.6843
O     15.3652     21.1018     14.5044
O     12.3516     19.2121     13.1257
C     13.1943     19.6714     14.2316
C     14.4461     20.2548     14.2927
C     12.5564     19.5642     15.6349
9

O     11.6653     20.5992     15.6988
H     11.4119     18.3052     14.0174
O     12.7441     18.5461     16.4387
H     11.0199     20.0716     16.3306
O     15.3863     20.3332     14.2767
O     12.1383     18.9031     13.2317
C     12.8515     19.4631     14.3162
C     14.1560     20.0444     14.3778
C     12.5246     19.4419     15.6245
9

O     11.6647     20.6514     15.6127
H     11.2226     18.8510     13.4433
O     12.4536     18.4161     16.1917
H     11.1534     20.0465     16.3429
O     15.2201     21.1185     13.7760
O     12.2785     18.7738     13.2304
C     13.2915     19.3134     14.3304
C     14.3877     20.2364     14.0979
C     12.6243     19.4802     15.4782
9

O     12.0959     20.9240     15.7331
H     11.5992     18.6173     13.1943
O     12.2717     18.8407     16.8056
H     12.6584     21.1992     16.5689
O     15.0642     20.7932     13.4970
O     12.5421     19.1451     13.0617
C     13.2036     19.4206     14.4160
C     14.1777     20.1685     14.2359
C     12.2842     19.4244     15.6186
