5

O     28.8727      1.1813     14.9452
C     29.5942      1.6082     15.8392
H     29.7828      2.0680     18.8815
C     30.4019      1.6218     18.2826
C     30.0136      1.5265     17.1554
5

O     29.4533      1.1049     15.7966
C     29.2819      2.2357     16.3853
H     29.3695      1.6458     19.4662
C     30.1979      1.7266     18.6654
C     29.8376      2.0433     17.6694
