7

H     14.0304     66.1031     15.7412
O     10.0848     65.2278     16.3693
H     12.8346     67.3925     15.3041
C     12.9669     66.3462     15.4471
O     12.2446     66.0668     17.6930
C     10.7125     66.2167     15.9250
C     12.0315     66.0957     16.2827
7

H     14.4346     66.3188     15.5496
O      9.8638     65.1198     15.7995
H     13.0621     67.1089     14.7654
C     13.3575     66.1061     15.0312
O     12.0381     66.6609     17.3137
C     11.1548     65.1211     15.8022
C     12.2699     65.6991     16.0024
