7

O      5.3375     14.6443     18.9517
C      6.8259     13.4010     16.9367
O      6.8402     12.2313     16.1057
C      8.0201     12.9909     15.7566
C      6.1356     14.0806     17.7815
O      9.0228     12.9806     15.0839
H      4.3153     14.5921     18.8825
7

O      6.2348     15.4136     18.1218
C      7.3281     13.3912     17.5629
O      8.5832     12.9822     17.1852
C      8.8909     13.5187     15.8647
C      6.4560     14.1223     17.4779
O      9.0572     13.9310     14.8372
H      7.1379     15.1937     18.6174
