7

O     27.2389     31.1908     22.2114
H     26.6040     31.0895     21.5243
C     29.7078     30.5721     21.3455
C     30.0218     29.1963     21.7870
C     28.3825     30.8351     21.4296
O     29.9814     28.0070     21.9967
O     28.9988     31.5844     20.5073
7

O     26.9561     30.7034     22.2805
H     26.5407     31.6275     21.6720
C     29.5084     30.3750     21.6695
C     30.1871     28.8646     21.7882
C     28.2603     30.8925     21.9046
O     30.6131     27.8105     21.8319
O     28.7897     30.7075     20.4647
7

O      5.8854     15.0615     17.7966
C      7.4011     13.1770     16.8652
O      7.5482     11.8961     15.9309
C      8.3813     12.8130     15.5012
C      6.5895     13.9981     17.1704
O      9.5906     13.0345     15.1782
H      5.8881     14.8719     18.6379
7

O      5.3873     14.6324     18.0724
C      7.4188     13.7248     16.9505
O      7.5073     12.4258     16.3931
C      8.7975     12.8533     16.1534
C      6.5519     14.2854     17.5123
O      9.7080     13.2792     15.4423
H      5.2727     14.4921     19.1289
7

O      5.5631     15.4050     18.0640
C      7.5089     13.8846     17.0233
O      7.8941     12.2993     16.6748
C      8.6878     13.1006     15.8951
C      6.4588     14.4178     17.3885
O      9.8037     13.6141     15.5491
H      4.8722     15.5218     17.4811
7

O      5.4945     15.0195     18.3926
C      7.1350     13.4532     17.2671
O      7.5533     12.2123     16.7305
C      8.3751     12.8201     15.9486
C      6.6408     14.4897     17.8185
O      9.4955     13.1928     15.3850
H      5.6436     14.8033     19.2821
7

O      5.7109     15.3454     18.2754
C      7.1367     13.3701     17.1301
O      7.8792     11.9718     16.7439
C      8.3780     12.8584     15.8553
C      6.7680     14.3176     17.7635
O      9.1478     13.5410     15.1163
H      5.9665     15.5656     19.2579
7

O     27.2430     32.2804     23.0568
H     27.8258     31.9309     21.9264
C     26.1138     30.2639     22.2468
C     27.0313     29.4797     22.8163
C     26.1502     31.5153     22.9245
O     28.0114     29.0449     22.2122
O     25.0371     30.6687     23.2405
