67

C     28.9252      7.0415      7.1514
C     28.6770      6.7716     11.8328
C     35.6082      1.0814      3.3323
C     29.5759      4.6624      7.9475
C     31.9264      2.7518      6.0052
C     29.8827      2.3680      9.0074
C     29.6840      9.2587     11.9068
C     28.3442      5.4245     12.3953
C     29.0753      6.1361      9.3597
O     28.4820      3.1376     12.8538
O     27.5870      2.3768      6.1137
C     31.8243      9.7376     16.1896
C     28.5241      4.0688     11.9669
O     36.6794      0.5364      3.7921
O     29.1274      8.5812     15.2612
O     35.0443     11.2671     17.1765
O     30.6733     -0.7620     11.7343
C     28.2896      6.4383      5.9113
C     29.0907      4.7476      9.3200
C     30.0584      9.2417     14.4943
C     29.8529      8.3692     10.6822
C     30.4451      0.4648     10.9508
C     29.6920      3.2149      7.6842
C     30.7377      1.1385      8.9541
C     34.0544      0.9925      5.3014
C     29.2466      2.3437     10.2987
C     30.8494      0.0002      9.7069
C     29.5816      6.1753      7.9775
C     29.0744      7.5947     13.1527
O     28.5860      8.3838      7.1216
O     32.8544      0.9246      7.3788
C     34.1108     10.1754     17.0123
H     33.2676      9.8055     14.6836
H     28.3309      8.4698      6.2862
C     30.8760     10.2887     15.1346
C     31.4531      1.3292      7.7063
C     30.1678      8.5288     13.2466
C     29.1232      7.1589     10.5199
C     28.4723      7.5019     14.3849
C     33.1637     10.0317     15.9701
O     26.4211      4.4870     13.2457
H     32.3067     -0.7303      8.4693
H     31.3276     -1.5315      9.9565
O     27.9954      6.2719     14.7428
H     31.4470     -0.5423     12.5776
H     30.2699      9.0634     16.7103
H     34.3790     11.9346     17.1902
H     33.3636      8.5736     17.2998
C     30.5444     11.6498     15.0734
O     28.2541      5.9901      4.8668
O     30.3028     12.7018     15.7211
O     28.6233      9.9940     11.9945
C     33.0045      1.6993      6.0518
C     30.9295      2.4684      7.1060
O     32.8300      5.0540      6.1397
C     34.6687      1.0224      4.2869
C     28.2923      2.5877      7.0190
N     31.3313     -1.1790      8.9766
O     34.3752      8.7725     17.4029
H     35.5317      3.0066      2.3324
O     31.1128      9.1236     17.2879
O     35.3657      2.0559      1.9428
C     29.1215      3.8259     10.5645
C     32.6095      3.8997      5.8103
C     27.3894      5.2262     13.5803
O     29.9163      1.6525     11.4547
O     30.4341      8.8373      9.6539
