10

C     14.7750     55.1408     18.8046
C     13.9357     56.1595     19.3208
O     16.6588     55.3260     20.3380
N     16.2259     53.3506     19.4304
H     17.1576     53.5325     19.8588
H     15.4140     52.9468     19.0980
C     13.6454     57.2166     19.8963
O     14.2627     54.8734     17.5575
C     15.9659     54.7487     19.4603
O     13.4886     58.2701     20.6062
