9

C     17.1749     44.7876      7.2071
O     17.5848     48.2150      9.5720
C     16.9491     47.2216     10.0571
C     16.7279     44.6995      8.2905
O     17.2594     44.2107      5.7706
H     18.2789     44.3349      7.0941
O     15.9607     43.7737     10.1315
C     16.3310     44.8760      9.5889
O     16.0515     46.2531     10.1974
