69

C     33.1666      9.7329     18.3571
C     29.0351      7.3732      7.7044
C     29.0793      6.4332     12.5511
C     34.9223      1.1884      2.7849
C     30.4298      5.1977      8.5514
C     32.5269      3.5999      6.0866
C     30.6647      2.5927      8.9738
C     30.0597      8.9208     12.3075
C     28.3128      5.2863     12.5999
C     29.3397      6.4224     10.0117
O     26.8101      4.3982     11.0047
C     32.4758      8.8127     15.5347
C     27.9747      4.2747     11.5070
O     36.0543      0.8350      2.9853
O     28.9454      8.1515     15.8193
O     35.1725     10.4813     17.1402
O     30.3587     -1.1702     10.8566
C     28.7494      6.1702      6.9978
C     29.6588      4.9582      9.9429
C     29.8587      9.1287     15.2172
C     30.4560      8.1231     11.0505
C     30.3241      0.1711     10.3168
C     30.7530      3.7560      8.0735
C     31.3808      1.2768      8.6078
C     33.1664      2.4615      3.6870
C     29.8985      2.7302     10.1390
C     30.9898      0.0163      9.3511
C     29.8083      6.5892      8.6517
C     29.2855      7.5178     13.6792
O     28.1788      8.5605      7.7715
O     32.7855      1.2510      6.5661
C     34.6528      8.9689     16.8013
H     34.0453     10.1577     15.1173
H     27.5737      8.6653      6.8565
C     31.8235      9.6287     18.8325
C     31.2420      9.4321     15.5491
C     31.8222      1.7369      7.3239
C     30.2477      8.6412     13.7137
C     29.4196      7.0382     11.2828
C     28.7698      7.1110     14.8544
C     33.8549      9.2684     15.8644
O     26.9095      4.0715     13.8317
H     32.5888     -0.8539      8.4462
H     31.7320     -2.1441      9.4571
O     33.0309     12.3235     18.6738
O     27.6974      6.1192     14.8713
H     30.5528     -1.0601     11.9213
H     32.7945      6.9867     14.3308
H     36.3834     10.0140     17.3632
H     35.6295      7.2020     16.2398
C     32.7914     11.0844     18.7849
C     30.3274     10.6208     15.7784
O     28.0297      6.1213      5.9991
O     30.5918     11.6184     15.0285
O     29.2363     10.0907     12.3756
O     33.7264      8.5192     17.8666
C     32.9054      2.3482      5.1291
C     31.6114      3.1063      7.1846
O     34.0368      5.6028      6.4226
C     34.0832      2.2593      2.8554
N     31.8350     -1.2014      9.1088
O     35.8713      8.1183     16.6289
O     32.4487      7.4094     15.0927
O     30.8269      9.3392     18.1409
C     29.2695      3.8617     10.7383
C     33.1103      4.8056      6.1308
C     27.5232      5.2282     13.8414
O     29.9238      1.5324     11.0105
O     30.9268      8.9258     10.1054
