86

H     11.1470     11.2227     15.9124
C      9.3342     17.2814     21.7815
C      6.1096     17.0003     24.9888
C     14.3637     14.9988     13.4303
C     11.8667     14.9087     23.6109
C     11.0064     12.4947     26.0504
C     10.4904     16.4444     21.8602
C      5.0247     16.0389     24.7007
C      3.1509     14.9858     23.6812
C      6.7008     18.1924     22.5914
N      5.7002     18.4504     21.7083
O      8.4879     11.8949     22.1286
O     14.4231     12.7341     21.6350
C      7.8888     18.1239     23.4257
N     16.8016     15.5324     10.6699
O     15.4481     10.9311     15.7619
O      9.9578     11.4441     25.8642
H      1.1968     14.0071     23.3779
H      8.3324     12.8549     22.1010
C      8.8540     14.8096     29.0748
C     16.0274     15.9069     11.6945
O     13.8939     12.9675     28.0779
C     11.1896     16.1631     23.1707
C      8.4404     16.3049     20.9190
C     11.9707     13.7933     22.6331
C     14.1796     13.6073     17.8063
C     15.1052     14.2061     15.7417
C     10.6744     15.3412     20.9666
C     10.8362     12.5502     19.3877
C     11.7784     12.4096     18.4217
C     15.3799     14.2805     17.1983
C     13.8264     13.3450     20.3596
O     10.0705     14.1520     29.2757
O      4.1683     16.2098     27.1489
N     17.4352     14.9359      9.8691
O      7.2163     16.7393     20.7424
C      4.4216     15.5730     23.4710
C     13.0340     13.6904     27.5341
O     13.2142     14.8706     26.8474
C     14.4493     14.5457     14.7314
C     12.3079     11.9303     17.4118
C      4.1012     15.8890     25.7667
C      9.4507     11.6635     21.1628
O     11.9095     11.5216     23.2332
O      2.8383     15.4398     24.9571
O     12.8255     13.2123     12.0884
H     15.3191     13.1411     21.4705
H      6.4325     14.1008     24.8212
O      2.3123     14.1660     22.9452
C     10.4978     13.8210     27.9436
C     13.3850     14.2364     12.6426
O     15.7356     17.1112     12.3677
O     10.2804     10.4979     21.2653
C     14.6044     11.6598     16.3563
C     13.6862     12.4340     17.0339
C      8.5430     15.0491     27.5642
O     16.4070     14.3292     17.9699
N      9.7882     12.6330     20.2199
H      6.8189     13.3758     26.0370
C     11.5049     13.2520     27.1593
N      6.7921     14.3821     25.9152
O      8.1654     16.3523     27.3669
C     11.4671     13.1627     24.8441
C     10.1344     15.1660     25.6623
C      9.5153     14.3670     26.9258
C      7.0842     15.9946     25.2077
O      8.5173     15.5160     30.1395
O     11.8599     10.8973     16.3668
H      9.5058      9.9367     21.5904
H      3.2834     15.5349     27.4240
H      9.3906     12.1860     25.4273
H      6.0660     14.8078     26.6502
C     12.5796     13.9533     20.0740
C     13.7727     14.0914     19.1778
C     11.7253     14.3013     21.2432
C     11.7207     12.7333     23.5607
C     10.2961     16.9422     23.9623
C      9.7184     16.3550     25.1712
C     11.2426     14.5153     24.8978
C      8.2480     16.7397     25.6879
C      9.3082     17.8485     23.0656
C      7.4074     17.7591     24.8016
C     14.7244     16.1077     12.3990
O      9.4355     15.5598     20.2205
O      5.5268     15.4857     22.7726
H      4.8036     19.0809     22.1352
86

H     10.8620     10.3095     16.9266
C      9.0548     16.9217     22.1359
C      5.9722     16.6651     24.4438
C     14.3061     14.8982     13.0609
C     11.7911     15.0412     23.7566
C     11.8109     11.9831     26.1110
C     10.4126     16.3289     22.1469
C      4.7028     16.2248     24.6803
C      3.0801     15.2288     23.7921
C      6.8788     18.1680     22.9434
N      5.8883     18.2002     22.0097
O      8.0137     11.8164     21.9963
O     14.5931     13.1547     22.0913
C      7.8238     18.4663     23.9867
N     17.2447     15.0913     10.4828
O     15.1294     11.3439     15.5283
O     10.6526     11.1812     26.6278
H      1.4824     14.4101     23.3771
H      8.3213     12.5555     22.5428
C      9.2881     14.9194     29.1626
C     16.3769     15.6667     11.4434
O     14.0407     12.7948     27.8569
C     10.9943     16.3047     23.5134
C      8.5577     16.1439     21.0346
C     12.2752     13.9891     22.8468
C     13.8693     13.4450     17.9484
C     14.9690     14.6677     15.5113
C     10.5907     15.0546     21.3183
C     10.2742     12.3467     19.1681
C     10.9784     11.7162     18.4677
C     14.8665     14.2675     17.0032
C     13.7462     13.1238     20.7265
O     10.4465     13.7137     28.8898
O      4.0780     15.5870     27.1615
N     17.5923     13.9911     10.2604
O      7.3046     16.4550     20.7078
C      4.2366     15.7031     23.4125
C     13.2891     13.7835     27.6874
O     13.2775     15.1257     27.9383
C     14.5249     15.0129     14.4592
C     12.1021     11.5839     17.5797
C      3.8302     15.9934     25.8069
C      9.0312     11.5556     21.0518
O     12.3560     11.7011     22.4241
O      2.7185     15.5373     25.0141
O     12.1313     13.7660     12.1859
H     15.2285     13.7515     21.7768
H      6.0344     14.1858     24.6850
O      2.2501     14.6866     22.8316
C     10.9588     13.7516     27.6049
C     13.2749     14.1473     12.5870
O     15.9551     16.8457     12.2994
O      9.8382     10.4619     20.9009
C     14.2562     11.8390     16.3119
C     13.2631     12.3415     17.2430
C      8.9871     15.3744     27.7913
O     15.9091     14.8752     17.4860
N      9.3416     12.4864     20.1740
H      7.8240     14.1957     25.1638
C     11.8906     12.8133     27.2299
N      6.7881     14.6245     25.1856
O      8.0758     16.2092     27.2539
C     12.0044     12.8417     24.8527
C     10.2051     14.8055     25.5978
C     10.0316     14.5994     26.8979
C      7.2913     16.2606     24.3937
O      8.6702     15.2284     30.2013
O     11.7855     10.6365     16.6039
H      9.3914      9.7802     21.8305
H      3.0768     16.0883     27.5956
H     10.6181     10.1111     26.0793
H      6.4779     14.5355     26.1016
C     12.5149     13.5392     20.3467
C     13.6557     13.6759     19.3850
C     11.6270     14.0978     21.4414
C     12.3228     12.6148     23.4447
C     10.0344     17.0551     24.2192
C      9.5382     16.1787     25.3372
C     11.3209     14.1603     24.8779
C      8.2297     16.5081     25.7595
C      9.0161     17.7840     23.3804
C      7.2951     17.6443     25.0884
C     15.4089     15.5158     12.3013
O      9.3293     14.9394     20.6155
O      4.8323     15.1381     22.3780
H      5.8182     17.1965     21.6533
