13

C     19.8791      2.5674      8.5534
O     21.7436      2.1660     10.7467
C     18.8498      4.3059     12.3917
H     21.1787      2.7073      7.3775
O     19.9924      4.6339     13.1183
O     20.3643      3.0902      7.2697
O     19.2378      2.3051     10.9144
C     19.1944      2.5402      9.5250
O     16.9846      4.3729     10.7291
C     17.9307      4.3245     11.6087
C     20.7635      2.7178     11.3585
C     20.8889      3.3723     12.7065
N     21.9628      3.1505     13.0427
13

C     19.3822      2.5480      8.7829
O     21.6887      2.7775     10.5910
C     18.5167      4.4884     12.1446
H     19.8174      1.9603      6.8753
O     19.8048      4.7423     12.5581
O     20.1784      2.6017      7.6094
O     19.4065      2.6067     11.2494
C     19.1121      2.8539      9.8934
O     16.4653      4.6669     11.2464
C     17.4917      4.1041     11.8372
C     20.7596      3.0042     11.4006
C     20.9947      3.4757     12.9088
N     21.8982      3.6059     13.5482
13

C     19.8634      1.8257      8.7900
O     21.9211      2.9927     11.1174
C     18.4734      4.3481     12.5743
H     20.5995      2.0248      7.2143
O     19.6902      4.9573     12.6769
O     19.8770      2.4839      7.4040
O     19.5134      2.7804     11.0289
C     19.7726      1.8944      9.9494
O     16.6807      5.2612     11.0658
C     17.6300      4.8646     11.8871
C     20.7011      3.4350     11.2530
C     20.6773      3.8908     12.6383
N     21.4675      3.4011     13.5385
