2

H     29.6362     36.7191     24.3183
N     28.9884     36.8443     25.0693
2

H     28.3584     37.0568     24.8219
N     29.4283     37.1630     25.0309
2

H     29.6785     37.9815     23.8259
N     29.7445     37.6013     24.8656
2

H     31.0395     37.9519     24.4764
N     30.2418     37.5762     24.6979
2

H     28.0993     37.3619     24.1899
N     29.0504     37.2846     24.3814
2

H     19.4961     24.1388     15.4258
N     18.8561     24.2115     14.4748
2

H     28.2501     38.3242     23.3296
N     28.1979     37.4797     23.9863
2

H     29.4431     37.0178     22.7543
N     28.9249     37.7594     23.2040
2

H     30.2938     36.8805     23.1207
N     29.8281     37.6335     23.0753
2

H     29.7554     39.5202     23.1328
N     29.1622     38.7291     22.9033
2

H     27.8609     38.3720     21.0551
N     28.7244     38.3244     21.8530
2

N     12.0704     57.5636      4.9299
H     12.5589     58.4153      4.4846
2

N     13.1235     56.6279      5.0259
H     13.5681     56.6400      5.9290
2

H     28.4188     37.6729     22.2912
N     28.9624     38.4338     21.8336
2

N     13.1893     57.2797      5.2446
H     13.9455     58.0213      5.1475
2

N     19.7603      4.0193      5.0053
H     20.2458      3.1425      5.4239
2

H     28.0026     39.2770     22.1162
N     28.7502     38.8905     21.6713
2

N     18.3355      3.9554      4.8128
H     18.2222      4.4781      3.8606
2

N     13.6788     57.5772      5.6333
H     14.4716     57.5931      6.0736
2

N     19.4686      3.0273      4.5718
H     20.1033      2.5821      3.9724
2

H     29.1015     38.6900     21.2433
N     28.4978     38.7133     22.1842
2

N     19.1039      4.1673      4.5811
H     19.0672      4.1024      5.6104
2

N     19.8423      2.7654      4.0077
H     19.0654      2.0277      4.0188
2

N     19.1169      3.6877      4.7772
H     17.9811      3.6233      4.7975
2

N     19.7216      2.4795      4.2088
H     19.5873      2.2317      3.1010
2

N     19.1717      3.3338      4.6298
H     18.3754      3.4470      3.8537
2

H     15.9718     46.5015     20.7911
N     15.5869     45.6867     21.2595
2

H     16.2664     44.8162     21.0465
N     15.5092     45.5161     21.2548
