3

H     17.2067     46.1126     23.8287
N     16.3479     46.6914     23.2973
H     16.2203     47.6918     22.9888
3

N      4.1295     33.9650      5.2852
H      4.6781     34.6116      4.5792
H      4.2262     34.6399      6.2992
3

H     11.3865     11.2420     23.8894
H     10.5868     11.5840     22.6352
N     11.4655     10.9094     22.8914
3

H     13.3498     63.9077     22.0080
H     12.4211     62.3447     21.3421
N     12.5449     63.3141     21.8827
3

H     16.2518     47.4629     23.2236
N     16.5243     47.0033     24.0930
H     17.2121     46.1244     24.3635
3

N      4.9753     33.6092      5.7421
H      4.6092     33.4820      6.5415
H      5.2824     33.9918      4.7675
3

H     11.6430     10.2776     22.9374
H     10.8447     11.5077     22.5772
N     12.0110     11.1789     22.9608
3

H     12.4093     62.3588     21.8529
H     10.9973     63.3030     21.7295
N     11.7417     63.1335     22.2124
3

H     16.8749     46.0120     23.5919
N     16.1615     46.6219     24.2900
H     17.2856     46.2920     25.0292
3

N      4.9585     33.7935      5.7030
H      5.7199     33.1611      5.2472
H      4.3650     33.8241      6.7335
3

H     11.8164      9.8024     22.6107
H     10.8916     11.0989     22.2578
N     11.8220     10.8484     22.2974
3

H     12.8909     62.9546     21.8589
H     11.1783     63.6162     22.2813
N     11.8124     62.9300     22.0294
3

H     26.1184     60.1643      2.7891
H     27.8785     60.2258      2.2083
N     27.0450     59.9096      2.7793
3

H     14.7860     45.3416     23.7160
H     16.7583     46.1147     23.4032
N     15.8591     45.8142     23.6404
3

N      5.0095     34.9257      5.6478
H      4.2695     34.1776      5.3539
H      5.8175     35.1592      5.9621
3

H     11.1214     63.3029     21.2392
H     11.9814     61.6620     21.3681
N     11.8504     62.6282     20.9480
3

H     26.3433     60.6626     20.2709
N     25.4282     60.3881     19.8315
H     24.7232     60.4542     20.8226
3

H     27.2675     58.7090      2.8067
H     26.9345     60.6424      2.4336
N     27.4676     59.5988      2.3634
3

H     16.3825     45.7521     23.0739
H     17.1059     46.7484     24.1606
N     16.2072     46.2570     23.7196
3

N      4.7313     34.4359      5.6798
H      4.8883     35.0860      4.7682
H      5.2564     33.5918      5.9755
3

N     16.1522     52.8879     19.1481
H     17.0462     53.3087     18.7525
H     15.8572     52.4116     20.1804
3

H     32.0759     54.1514     21.1625
N     31.5723     55.0430     20.8097
H     31.5100     55.2285     19.6610
3

H     10.8822     62.9450     22.9202
H     12.6059     62.9889     22.1415
N     11.5345     63.0924     22.0768
3

H     27.5824     58.6905      3.3037
H     26.5230     59.3608      2.2460
N     27.1845     59.5610      2.9305
3

H     17.5800     46.5744     24.6116
H     16.1431     46.9654     24.2576
N     16.8287     46.3265     23.9683
3

N      4.7077     33.6806      5.8492
H      4.2453     34.4338      5.4777
H      5.5525     33.1542      5.5079
3

H     31.5838     55.5117     19.9810
N     30.9421     55.1051     20.5422
H     30.3272     54.5548     20.0097
3

H     17.2861     46.9959     24.2729
H     16.1641     46.4380     23.3417
N     16.4715     46.5208     24.2515
3

N      5.2855     33.2091      5.5064
H      5.6727     32.4413      6.1178
H      4.5783     34.0041      5.6354
3

H     30.7234     54.8989     19.9563
N     30.8497     54.3899     20.7488
H     31.5990     54.0970     21.5127
3

H     17.7780     46.4880     23.8751
H     15.8040     46.8437     24.5477
N     16.6974     46.3468     24.2277
3

N      5.3166     32.8235      5.9881
H      4.9660     31.8014      5.9323
H      5.1589     33.4785      5.1605
3

H     29.8682     53.6082     22.0557
N     30.5395     53.7587     21.1970
H     30.8370     53.3998     20.1817
3

H     12.0322     62.7845     23.0055
H     10.7503     62.7134     21.7701
N     11.1654     62.2387     22.7794
3

H     17.4535     45.4838     23.7023
H     16.8550     46.4044     25.1500
N     16.7638     45.9818     24.3839
3

N      4.5205     33.1696      6.1045
H      4.0389     33.6173      5.2580
H      5.2017     33.8003      6.5433
3

H     29.4285     53.5348     21.7130
N     30.1911     53.6887     21.2437
H     30.0899     54.5517     20.5499
3

H     10.9850     62.5529     24.0205
H     12.1570     63.1460     23.0177
N     11.3101     62.5547     23.1351
3

H     17.3237     46.2583     23.6239
H     15.4557     46.1973     24.1023
N     16.4264     45.6025     23.8646
3

N      4.9008     33.5282      5.2628
H      5.4909     33.7555      5.9938
H      4.0474     33.6996      5.7037
3

H     10.7089     63.3819     24.9269
H     11.5466     62.7236     23.5086
N     11.6121     63.3282     24.2060
3

H     16.7313     46.4549     23.1358
H     17.3071     44.6396     22.9390
N     16.6200     45.4013     23.3031
3

N      4.7800     32.8330      4.6066
H      4.2370     32.6194      5.4052
H      4.2368     33.3550      3.9162
3

H     28.6605     55.5754     20.2684
N     29.3626     54.9080     20.1263
H     29.9970     54.8534     21.0241
3

H     12.4192     63.2670     24.6657
H     10.7008     63.1715     23.6737
N     11.2615     63.6515     24.4844
3

N     13.6670     55.9904      5.4111
H     12.6194     55.4316      5.2581
H     14.3047     56.0324      6.2418
3

H     16.9582     44.8801     22.9982
H     17.8418     46.1450     24.1207
N     17.0305     45.6232     23.6895
3

N      4.4906     33.3128      5.5466
H      4.2414     32.9909      6.4708
H      3.6850     33.7094      4.8945
3

H     30.4604     55.6022     20.1513
N     30.0008     54.7793     20.6558
H     28.8978     55.0585     20.7262
3

H     11.6932     62.7568     24.9791
H     10.5891     63.5111     23.4076
N     10.7370     63.3787     24.5601
3

N     12.9922     56.2945      5.4635
H     11.9470     56.4908      5.4166
H     13.5764     55.6674      4.9090
3

H     17.4891     43.8736     23.8504
H     17.4999     45.7238     24.2398
N     16.9933     44.7887     23.9822
3

N      4.6491     33.2141      6.3594
H      5.5501     32.8570      7.0146
H      4.7018     34.0696      5.7215
3

H     26.4977      1.7975      2.0757
H     27.7124      0.6149      2.9076
N     27.4021      1.4712      2.3557
3

N     12.7240     57.9147      5.4873
H     13.7537     58.1346      5.8359
H     11.8753     58.1545      5.8613
3

N     11.9692     56.1213      5.5077
H     11.5363     55.8788      4.5377
H     12.7607     55.7704      6.0397
3

H     -0.5604     53.0335     21.4056
N      0.0303     53.5908     20.6722
H      0.6701     52.8100     20.4304
3

H     17.9060     44.1249     24.6866
H     17.3309     45.8793     24.1368
N     17.3294     44.8764     24.1787
3

N      5.1242     33.4439      6.9671
H      4.3667     32.8753      6.7649
H      5.3237     33.3126      5.9173
3

H     27.8065      2.6844      2.1603
H     27.4736      0.7717      2.6117
N     27.7195      1.7237      2.4744
3

H     30.5165     53.7788     18.8025
N     30.5589     54.6058     19.2984
H     30.8087     54.8282     20.3504
3

N     12.5940     57.4223      5.2179
H     13.2293     57.7652      4.1840
H     12.1040     57.9665      6.0737
3

N     11.9694     56.1850      4.9225
H     11.3626     56.2454      4.0762
H     11.7873     55.9267      5.9834
3

H     32.3225     54.9782     20.3986
N     31.8584     53.8577     20.5264
H     31.9224     53.0487     19.8296
3

H     17.9027     44.1821     24.8288
H     17.4321     45.8807     24.2831
N     17.4515     44.8153     24.2610
3

N      4.7464     33.4627      5.9277
H      4.2273     32.6369      5.8685
H      5.6824     33.0388      5.7528
3

H     12.3442     10.9154     21.8929
H     14.2583     10.2138     21.2939
N     13.5224     10.8496     22.0932
3

H     27.1280      1.7906      3.2304
H     28.0230      1.3069      1.6468
N     27.8660      1.1378      2.6087
3

H     30.6589     55.1451     19.2693
N     30.3013     54.6400     18.6307
H     29.7594     54.9667     17.8332
3

N     12.0409     57.0965      5.0284
H     12.9668     57.6824      5.2704
H     12.0187     56.6371      5.9603
3

N     11.9712     55.6562      4.5088
H     12.4374     55.4336      3.7458
H     11.3015     55.2787      5.0524
3

H     18.3313     44.6096     24.5713
H     17.1703     46.0539     24.7861
N     17.4942     45.2273     24.6218
3

N      5.2796     33.5273      5.7686
H      5.8045     34.3071      5.9275
H      4.8998     32.8365      5.0838
3

H     12.3686      9.8518     20.8145
H     14.3382     10.5697     20.1029
N     13.5292     10.3868     20.8447
3

H     28.3332      1.2058      2.8582
H     26.5900      2.0435      2.1354
N     27.3870      2.0856      2.7914
3

H     31.3230     54.5359     18.1116
N     30.3581     54.9710     18.4738
H     30.1480     55.9751     18.7603
3

N     11.7017     56.2522      5.5765
H     12.2817     55.6423      6.4131
H     10.9877     56.9756      5.4614
3

N     11.4224     55.2947      4.6286
H     12.5802     55.0866      4.0714
H     10.4634     55.4251      3.9752
3

H     18.7152     44.8374     25.7521
H     17.8240     45.8177     24.0870
N     18.1692     44.8017     24.5680
3

N      5.5699     34.5387      5.2207
H      6.3485     34.4114      4.6324
H      5.9216     33.5782      5.8892
3

H     28.4331      1.4209      3.0003
H     27.3904      2.6864      2.1071
N     27.4639      1.8678      2.5333
3

H     31.3243     54.7395     19.1411
N     30.4351     54.9753     18.4479
H     29.5738     55.5084     18.7165
3

N     11.1255     56.7244      5.4065
H     12.0278     56.6041      6.0731
H     10.8245     56.2486      6.3335
3

N     11.2550     55.3653      4.5088
H     10.9175     54.6077      5.0541
H     10.7792     55.4946      3.6634
3

H     18.2110     62.0774     16.9555
N     18.7501     61.2356     17.1633
H     19.7555     60.8850     17.7421
3

H      3.0282     34.0028     17.9997
H      4.1220     34.2001     18.7563
N      3.4322     34.7923     18.5901
3

H     18.4981     44.0491     23.6274
H     18.5678     45.2677     24.9648
N     18.3134     44.3915     24.5302
3

N      5.4915     33.8160      5.4948
H      5.5389     33.9223      4.3067
H      4.5738     33.5996      5.6266
3

H     27.9660      1.4262      2.7211
H     26.4500      1.5742      1.9213
N     27.2533      0.8609      2.2574
3

H     30.8120     53.7691     18.7132
N     30.6186     54.7685     18.8909
H     29.8837     55.1941     18.5705
3

N     11.8037     56.2213      5.8734
H     12.9317     55.9497      5.6181
H     11.8860     57.2795      6.2549
3

N     11.1627     56.0143      4.5790
H     11.9255     55.4118      4.2117
H     10.1110     55.9319      4.6873
