   96
17.21826 17.21826 17.21826
 O  1.68432  7.70993  7.84766    -0.32094  0.19758  0.68135
 H  0.43353  6.99048 16.11583     0.04707  0.40975 -5.06656
 H  1.16720  4.47277  9.41498    -3.03699 -2.44463  3.02131
 O  8.49612  7.87841  6.49777    -0.10685 -0.02380  0.82853
 H  2.54432  3.66063  8.66269    -0.99263 -2.64555  1.49636
 H  9.25970  3.70386  5.37700     0.45220  0.25572 -2.15061
 O 17.04036  6.81174  2.79904    -1.04162 -0.69348  0.25377
 H  1.61715  1.56952  7.38419     0.85748 -1.25196  0.63408
 H  4.40852  8.76781  8.99694     0.81758  0.82365  0.76313
 O 16.95042  2.02640  2.01068    -0.49189 -0.40093 -0.93707
 H  5.30440  4.38438  9.07318    -1.95323 -0.09031 -1.25784
 H  4.66306 10.71425  6.46852    -1.97072  4.45090  0.54558
 O  1.70698  3.91004  8.72254     0.10437  0.05568  0.34048
 H  4.20703  4.50964  3.46757     0.08437 -1.57111 -1.73270
 H  1.75282  7.53642 15.76358     2.73116  2.31930 -1.02058
 O  8.70886  1.08800  9.36142     0.25407  0.03703  0.97912
 H  0.69867  5.46025 17.21743     0.86027  2.78723  0.39491
 H  5.42354  2.84442  5.50480    -1.14642  2.01172  0.78631
 O 16.31774  5.27167  4.01168    -0.48909  0.26140  0.49151
 H  6.40266  0.37382  5.34009    -4.04510 -1.89762  1.30244
 H  3.55173  6.79426 17.00300    -1.88314  1.96241 -0.42118
 O  3.96850  6.08034  0.27465     0.19955 -0.51087 -1.54842
 H  7.84308  6.74260  3.98743    -5.03258  3.34653  5.31040
 H  7.42608  5.46600  4.96660     1.94676 -0.10100  1.05267
 O  6.02892  1.27145 16.95658    -0.04935 -0.44207 -1.19527
 H  5.94214  5.28085  3.68700     2.11512 -2.18806  0.73807
 H 16.70558  7.63512  2.48868    -0.38478  0.02815 -3.12673
 O  2.51663  1.15766  4.68068    -0.17359 -1.11161 -0.41914
 H  7.09362  7.73308  8.44639    -2.65401  0.45256  0.41792
 H  9.05126  6.81153  5.96112    -3.67633  2.80075  1.36647
 O  3.61036  1.72720  1.42600    -0.08412  0.05237 -0.47319
 H  9.22256  2.15598  6.28179     2.05835  1.56013  2.97881
 H  9.21028  4.95074  1.37550     1.52533  0.87762 -0.08316
 O  8.76432  1.44819  0.82097     0.34851 -0.21756 -0.09694
 H  8.33902  8.54071  5.83065     1.70706 -1.10893 -0.11329
 H  5.64879  7.76668  8.89509    -1.51366  1.85383 -1.19445
 O  8.46076  8.12222  2.31754     0.68584 -0.16964 -0.00370
 H  1.20206  4.00220 16.72657    -0.48179 -1.06323  1.96097
 H  9.09610  1.51357  8.06966     1.14427  0.26429 -3.35520
 O  4.66350  3.13837  6.13048    -0.75236 -0.16561  0.05939
 H  5.64163  5.50823  7.98888     1.37513 -1.67029  1.04918
 H  7.60864  0.91638  9.33300    -0.24561 -2.16336  2.42800
 O  1.31112  1.29147  6.39853    -0.41679 -0.22352 -0.00826
 H  2.91304  0.49123  4.02180     0.29055  2.44587 -0.90754
 H  6.25788  0.73446  3.23169    -2.21034 -1.49998  0.18945
 O  7.06579  7.07238  9.08262     0.33249  0.28119  0.46364
 H  4.78634  5.92610 17.12887     0.96496  1.84161  0.69902
 H  8.06086  0.27685  0.07167    -2.02487  1.78048 -1.72502
 O  1.00135  7.77779 16.27686    -0.03846  0.32392 -0.49503
 H  3.72735  3.38475  6.31882    -0.05856  2.30804  0.97042
 H  6.59843  1.92994  0.21905     0.74958 -0.16881  1.18753
 O  6.35135 16.93639  6.09836     0.50070 -0.38354 -0.28613
 H  6.79422  2.38368 14.84587     0.42628 -0.45219  0.81958
 H  2.66517  1.08211  1.17978    -1.92696  0.84572 -0.62076
 O  2.93773  6.13029  5.40169    -0.15583 -0.22794  0.25662
 H  1.62341  3.96402  0.71784    -0.17137  1.71759 -1.92311
 H  1.91882  1.27216  5.47280    -0.29404  2.25797 -1.40066
 O  5.21661  4.57216  3.29777     0.66663  0.67580  0.12270
 H  6.78338  5.87676  8.10924    -0.50502 -0.47340 -1.13827
 H  7.28951  2.86840  2.78385    -0.52465  0.50257  0.94409
 O  3.45247  8.21701  1.33549    -1.02172  0.33321  0.47282
 H  1.36375  7.90460  8.70849     1.73674  2.06474  0.20318
 H  2.68932  5.19305  5.39558     1.12770  2.56216  2.45938
 O  4.88746  8.11602  8.38261     0.13707  0.53056  1.08173
 H 16.26657  5.39049  5.80830     0.41867 -5.84250  0.13151
 H  2.48936  8.75637  1.17526    -4.39448 -3.23809 -2.33913
 O  4.82120 11.21311  7.37456     0.85934  1.10696  0.43568
 H  7.98199  5.52055  9.45111    -2.76946  2.84524 -4.04249
 H  9.09014  6.77132  0.08026     1.68389 -4.63197  6.48963
 O  9.16534  5.74114  0.73153     0.38742  0.88382 -0.31675
 H 16.43771  2.28033  1.21619    -5.20914 -0.03115  0.34450
 H  9.21740  8.71627  2.15373     1.15125  0.90197  0.46471
 O  8.63838  5.85896  5.45025     1.24122 -0.58628 -0.51045
 H  4.51379 11.71738  8.27455     1.00742  0.36888 -0.69059
 H 15.56072  4.84889  4.46382    -2.69244 -1.08926 -2.90124
 O  5.90744  4.69137  8.38085     0.44899  0.30052 -0.10151
 H  7.10580 16.30363  6.15066    -0.33724 -0.70565  0.55549
 H  8.50299  2.57925  4.31431     0.56065  0.78820  1.57786
 O  5.32259  0.92479  3.38331    -0.02179 -0.03212 -0.03025
 H 16.85014  6.06962  3.80329     0.04957 -2.46574 -0.56019
 H  0.27979  1.88869  2.83417    -1.11697 -1.36874  1.39610
 O  1.85123  0.38424  0.92624    -0.24393  0.00983  0.33175
 H  3.27218  2.66762  1.33123    -2.96768 -4.10358  0.94431
 H  5.12649  1.24493  0.02522     2.34299 -2.21304 -3.24769
 O  6.65083  5.91173  4.43489     0.21150 -0.85906 -0.07209
 H  8.77462  1.98269  1.79643     1.36155  4.10276  1.54063
 H  2.49567  7.89578  7.46874    -0.93904  3.53479  3.46306
 O  0.89458  4.37782  0.34602     0.05855  0.38286 -0.51468
 H  4.29260  0.13702  6.09029     0.02530 -1.62902 -1.92567
 H  4.65409  1.35839  2.87215     0.62301  0.30338  1.74415
 O  9.08005  3.21733  6.12949     0.19154 -0.13669  0.11578
 H  1.85645  0.06004  1.77280    -0.55818 -2.01443 -0.59022
 H  3.06133  6.35185  6.25149    -0.41121 -2.19919  1.45706
 O  8.04718  2.63504  3.43431     0.22203  0.08637 -0.30659
 H  3.10998  7.60919  2.05796     2.13246  4.69435 -3.26419
 H  7.95160  7.86377  3.07334     0.87446  0.81670 -0.67118
