5

O      5.3089      0.4766     11.0873
C      6.0345      0.6484     12.1345
H      7.5883      2.0613     12.8855
N      7.1284      1.4693     12.0718
H      8.0155      2.0289     11.2910
5

O      5.3611      0.4428     11.1754
C      5.9913      0.7377     12.1957
H      7.2112      1.8290     13.0330
N      7.1679      1.4845     12.1435
H      7.8352      1.9893     11.4930
5

O      5.3989      0.5122     11.4008
C      6.0832      0.8884     12.1597
H      7.3911      1.8579     13.2235
N      7.1458      1.4431     12.1936
H      7.6835      1.9430     11.4688
5

O      5.3348      0.6405     11.2604
C      6.0530      1.0161     12.4623
H      7.3082      2.3176     12.9823
N      7.4150      1.5541     12.1602
H      7.5464      1.9827     11.2240
5

O      5.4582      0.7430     11.3199
C      6.1123      1.1093     12.3880
H      7.4126      2.1435     12.9630
N      7.3791      1.5252     12.2279
H      7.3316      1.9555     11.2937
5

O      5.3794      0.7221     11.0585
C      6.2686      1.1119     11.6446
H      6.9857      3.0906     12.1923
N      6.9631      2.2152     11.7401
H      8.0208      1.7555     11.8326
5

O      5.7926      0.5910     11.1235
C      6.4155      1.1195     11.9898
H      7.4524      2.5377     11.1064
N      7.0839      2.2805     12.1145
H      7.8279      2.6936     12.8128
5

O      5.8493      0.5773     11.2008
C      6.3022      1.0508     12.1499
H      7.2243      3.1884     11.6641
N      7.1687      2.1779     12.1179
H      7.3893      2.5381     13.3139
5

O      5.7744      0.4977     11.1612
C      6.6795      0.9444     12.0911
H      6.7036      2.9938     11.9659
N      7.2596      2.0975     12.2116
H      7.9593      1.9254     13.1402
5

O      5.8677      0.5527     11.1269
C      6.5107      0.8984     11.9783
H      6.7234      2.9476     12.2155
N      7.2830      2.0128     12.2454
H      7.6882      1.8191     12.9492
5

O      5.8099      0.4991     10.9628
C      6.5231      0.8487     12.0679
H      6.6729      2.5680     11.4699
N      7.1718      1.9441     12.0991
H      7.5958      2.3628     12.8617
5

O      5.8323      0.4946     10.9263
C      6.4021      0.8002     12.0280
H      7.5331      2.1698     11.0894
N      7.2028      1.9211     12.0122
H      7.1214      2.6659     12.6313
