244

C      6.6860      9.0844      0.7903
C      4.0233     14.5907      7.1112
C     15.8692      3.5856      1.1369
C      7.0555     17.9194      2.5988
H     10.0200      3.2456      2.7926
C      7.4889     16.4552      3.3580
C      3.2658     17.1815      5.3820
C      2.9595     20.2363      6.5841
C      6.0439     14.6973      4.1221
C     13.8297      8.8550     13.6962
N     12.7336      3.2555      6.1238
C     13.2773      5.9331      0.3317
C      3.3702     17.1676      7.2630
H     12.9210      6.0972     -0.6101
C      2.8668     19.1325      4.3970
C      4.1487     10.8840      3.4092
H      1.2777     12.9261      8.7341
H     10.9900      2.4070      5.4703
C      3.6990      9.4702      3.2012
H      8.0011     15.7747      4.1822
H     12.5106      6.9720     10.8962
H     11.8179      4.9730      6.3674
C      3.2054     15.7645      7.8178
H      8.9685      9.8504     13.9282
H      6.9975     14.3389      4.6195
O     14.5769     10.4932     14.7067
C      8.3866     13.2951      7.9466
C      6.8463      5.7883      9.9856
H     14.3890      5.6078      9.1177
C      6.2296     15.6552      3.1244
H      6.3093      4.6560      7.7439
H      5.4903     10.4683      7.5783
C      4.2496     11.0062      4.8047
C     10.0100      8.3518      5.1491
O     14.8691      8.3373      4.8678
C     11.2163      7.3430      7.1840
C      8.5582      7.9049     12.2779
C      7.3989      7.8469      0.2306
C      6.3084      7.2386     12.3837
H     17.8282      3.9234      1.5104
H      4.2965      9.4304      0.7491
H     15.3362     -0.4237      3.2910
H      8.1359      5.7545      7.9731
C      6.9121      6.8463     10.9534
C      7.7069     18.8811      3.3669
H      8.2306      9.2757      1.7927
C     11.5219      6.3070      5.0435
H      1.7587     21.8211      7.2239
H     17.8565      1.1021      2.2468
H      3.2863      6.5364     12.8774
C      9.9856     11.5940      7.1613
C      5.6372      5.1949      9.7342
C      2.9920     20.5560      5.1850
C      4.1979      6.3671     13.2314
C      4.4315      9.3549      1.8701
H      9.4247      7.2982      5.0694
H      8.8153     20.5193      3.1589
H      2.9131     13.5036     10.2483
H      7.6501     13.1101      9.5698
H      5.4846     12.9006      4.6883
C     12.7443      3.4685      8.6720
C     13.1314      8.4933     12.3160
C     14.6334      2.5432      7.1315
C     12.3810      6.3985      1.4429
H      5.5413      8.0470     12.1747
H      9.6883      3.4099      4.7977
H      6.5445     17.5146      6.3185
C      9.7593      7.3412     13.0754
O     14.8590     11.0215     12.5606
C      2.7806     21.4570      7.3132
C      3.5057     13.8041      9.3167
C     16.4881      1.9435      4.6310
H     10.5408     10.3084     14.8236
H      5.6891     10.8196      5.0836
C     16.9449      3.7754      3.1730
H      8.5054      9.8082      6.1755
C     10.5647      8.4376     13.7996
C     10.8755      7.2428     12.0154
H     10.3032      9.5735      7.6166
C      5.4397     15.8196      5.3436
H     14.6930     11.5489     11.6725
H      4.9481     11.9665      6.5180
H      8.4787     16.0708      2.7404
H      8.2377     13.8738      7.0885
C      2.8803     12.0500      7.6813
C      5.3358     11.4037      8.2151
C     10.7886      5.0941      3.3347
C      3.5303     22.5374      6.6333
C     15.8103      4.1380      2.5049
H      2.0266     11.1971      7.4049
H     16.0731      8.4647      0.6521
H      9.3827      4.6843      1.8392
H     14.7961      4.0074     -0.8914
O      5.2124     20.4535      6.4482
C     13.4438      7.8206      4.6353
H      4.0049     23.3383      7.3850
C     10.0898      8.7740      3.7407
C     10.8503      7.7235      2.9118
C     10.0180      7.1442      7.8958
H     14.1641      2.4583      4.4228
H     13.8831      7.6318     10.6842
H      6.7273     14.8684      2.2689
H     11.6677      2.7311      8.6348
C     16.4826      2.2251      0.8527
C     13.1033      8.8329     15.1962
C     12.7936      3.8368      3.7654
C      7.4295     10.9486      7.6719
H     14.2949      0.8659      3.9240
H      9.0940      6.8987      7.3774
H      2.6983     22.9474      6.1231
H     14.8944      7.0963      0.4525
O     13.1423      9.5465      6.3321
C      6.7579     11.6851      8.5466
C     13.4969      6.5826      6.7780
C     15.0709      7.9181      1.0317
H     16.0824      8.2085      2.9825
C     13.4943      7.6761      3.1444
H      9.2534     13.8137      8.4732
C     15.7217      1.6081      3.1837
C     13.2633      3.2210      7.2712
C     10.3611     10.2519      6.7098
C     10.6073      2.7719      4.5483
C      5.2904     11.8326      5.2063
C      3.0783     16.3997     10.0629
C     11.7493      7.9808      1.7292
C      4.2884     12.4242      7.6582
N     14.8570      0.4209      3.2243
H     14.9683      1.0474      0.3608
C     15.9406      1.1601     -0.1261
O     17.1139      6.3702      2.5539
C      9.2199      6.2902     13.9761
H      5.4407     22.2912      5.9472
H     14.0929      1.5880      7.6375
C     10.1811      4.3276      2.3976
C     10.1044      7.3275      9.3129
H     14.6587      2.0580      6.2348
H      6.7030      4.8260     12.8690
C     10.0353      9.7147     14.0187
H     15.7794      7.0956      9.1442
H     10.1158      4.8130      5.7162
H     12.1348      9.7361      4.6236
H     13.9519      9.4934     10.7052
H     16.8912      0.3067     -0.0985
H     12.4255      4.3080      9.0188
C     15.0345      7.5619      2.5267
H      4.6986      5.6749      9.9725
C     14.3089      8.6229     11.2184
H      3.3807     15.9745     11.1413
H      4.1170     11.4671      2.4478
C      4.1375     21.6085      4.5098
C      7.8168     20.2031      2.7225
C      7.6636     10.1595      1.4830
C      5.7551      8.8747      2.0449
C      4.2104      6.2729      6.7212
C     14.8275      5.1410      2.4659
C      5.5739      6.1657     13.1766
C      5.6284     20.5577      4.0833
C      7.7742      6.8423     14.2312
C      4.2342      5.2823      7.7525
C     14.3683      5.2807      0.7235
H      8.0522     18.3077      4.7850
C      6.2032     20.2305      5.3654
H      9.0844      5.5098     13.1856
C      6.9237      5.5986     13.9422
H     12.5717      3.1254      3.0035
H     11.0591      7.0315      9.5975
O      7.2876     20.0402      5.7844
H      8.7166      8.7461     11.7473
H     14.8422      2.3982      3.1019
H      3.8199      5.4525     13.8771
H      5.0016      5.7828      5.1410
C     12.3770      7.4443     11.9957
C     15.8957      6.1864      2.8793
H     14.1816      7.6234      9.0894
C     11.4064      4.2211      4.3154
C     13.3273      6.4171      5.3596
H     15.5867      0.4116      5.6307
C      1.5005     18.4629      4.6449
H     16.4859      0.2853      1.9367
H     12.4245      6.6387      9.0132
C      8.1461      5.7516      9.2129
C      4.5800     13.5412      8.3100
O      6.2728     17.0188      5.5025
C      6.4127     20.8888      2.8375
C      9.2874      9.6743      5.6072
C     12.6725      6.3703      2.9099
C     11.3214      6.4266      3.4597
H      2.9858     21.2972      8.3776
H     15.2569      8.9826     11.1709
H     10.3108      1.9363      3.5403
C      2.3728     13.1593      8.4145
C     13.6765      5.1295      3.4863
C     18.1696      3.6382      2.6236
H     14.0981      4.6658      7.9823
H     10.7553     12.4627      7.2210
H      2.4695      9.6352      3.0191
H      7.0917     10.6867      6.7536
C     14.7936      6.6447      8.8908
C     11.1448      5.0845      5.5924
C     16.5619      1.2106      2.0599
C      1.6639     17.2678      5.5892
C     14.7632      6.4332      7.3998
C     15.1776      4.3877     -0.0352
H     11.4607      5.8088      1.3715
H     17.6434      2.4012      0.4206
H     16.1542      1.3999     -1.2408
H     11.3161     10.4686      6.0642
H      5.5343     13.8613      3.8871
C     12.4593      8.7177      5.1764
C      8.9258      6.5109     10.0716
H     16.9298      6.8631      1.7955
H      7.9441     10.5187      0.5633
C      8.7319     11.9305      7.4809
H      9.7091      6.2800     15.0147
H      8.9713     10.6041      5.0461
H      5.7925     14.7600      9.4831
C     12.4927      7.0178      7.7868
C     13.7354      3.2227      4.9771
O      8.6271     18.4932      4.1094
C     11.3464      7.7815      5.7750
C      6.1101     15.0626      7.5378
C      5.2945     15.3561      6.6382
C     16.2414      1.2376      5.8635
H      5.0285      3.7805      8.6895
H     12.8829     10.5861      6.4311
C     14.8561      4.8453      7.0280
C      3.9861      5.6179      5.3258
C      3.0231     15.4550      9.0863
H      6.9607     10.7045      2.2688
C      8.4327      6.7759     11.4049
H      3.4698      5.4708      8.4361
H     10.7498      6.1993     11.3180
H      6.9873     15.8191      7.3611
C     17.0873      3.2976      4.6659
C      4.4585     22.5264      5.5233
C      7.0751     13.1499      8.7497
C      5.6069      4.5925      8.4198
C      6.0210     14.0288      8.6592
H     13.3348      2.7708      9.0882
H      5.9500      9.6300      0.2537
H      8.2242      5.5325     11.7646
C     14.3648     10.2445     13.5979
H      3.0608     17.3976      9.8857
H      9.5141      9.7481      3.3338
