242

C     19.6164      9.1746     13.6596
C     -8.9809     14.6650      7.0957
C      3.0065      3.1858      1.2594
C     -5.7673     17.9197      2.7338
H     -3.4006      3.2918      2.5565
C     -5.3828     16.2185      2.8887
C      3.0084      4.1915      5.6140
C     15.8985      7.3253     19.5249
C     -6.9219     15.2580      4.4821
C     13.8579      8.6475     13.8137
N    -13.3268     15.8108      6.0377
C      0.6350      5.8211      0.5870
C      2.9570      4.0732      7.2468
H      0.3427      5.2081     -0.4396
C     15.6075      6.2959     17.2919
C     17.3070     10.5475     16.1332
H    -12.0011     13.1343      9.0670
H     -2.9830      2.3259      5.6179
H     -6.9091     17.9254      2.8281
C     16.8632      9.1357     16.1565
H     -4.3922     16.5932      3.4342
H     12.7982      6.6770     10.9886
H     -0.8361      4.9077      6.5501
C     -9.9962     15.7172      7.6833
H     -3.2486      9.9893      1.1559
H     -6.3659     14.3983      5.1405
O     15.2590     10.3917     15.0029
C     -4.8470     13.4047      8.3926
C      6.9062      6.1746      9.8175
H      1.3401      7.3145      9.2709
C     -6.5909     15.7172      3.1545
H      6.0323      4.9083      7.1460
H     -7.9103     10.3678      8.4702
C     17.4778     10.8385     17.3432
C     -2.8443      8.3866      5.0455
O      1.7825      8.5344      4.8400
C     -1.7692      7.1908      7.1182
C      8.7576      8.1776     12.3005
C     20.4588      8.0486     13.2248
C     -6.3939     20.1099     -0.5034
H     -7.9905     16.3579      1.5999
H     16.5961      9.3457     13.9051
H    -12.0495     13.1444      3.6565
H     -4.2594      5.7132      8.8640
C      7.0867      6.7539     11.0367
C     -5.0866     18.8388      3.5959
H     21.2822     10.3022     13.9775
C     -1.0835      6.3479      4.9889
H     15.8468      9.2638     21.1419
H      4.6035      0.2854      2.3765
H     17.5572      7.2458     14.6524
C     -2.8583     11.7687      7.1840
C      5.6559      5.7639      9.3995
C     15.9414      7.7793     18.0129
C     -7.9697     18.4600      0.2618
C     17.3611      8.8031     14.7183
H     -3.6164      7.8574      5.5177
H     -4.2477     20.4424      3.2998
H     -9.5032     13.7737     10.4465
H     -6.4803     13.4151      9.9551
H     18.6102     12.5836     17.5517
C    -13.1799     15.8914      8.6299
C     13.2323      8.3680     12.2123
C    -11.1837     15.0476      7.0534
C     -0.5682      6.1119      1.4789
H     -7.3671     20.4966     -0.8002
H     -3.3840      3.0540      4.2587
H     -6.5785     17.7562      5.8698
C      9.9342      7.6307     12.9527
O     14.9692     10.5991     12.7108
C     16.3612      8.7516     20.1395
C     -9.8637     13.9918      9.4143
C     -9.5789     14.6262      4.7324
H     -1.7937      9.9346      2.0580
H     18.3479     11.2945     18.8905
C     -8.9949     16.8038      3.3783
H     -4.2616     10.3693      5.6598
C     -2.1046      8.5503      0.8023
C     10.8804      7.1263     11.8692
C     -7.7037     16.2339      5.3979
H     17.2628     12.7873     18.0095
H     -4.9114     15.8975      1.9654
H     -4.4332     14.4254      7.6339
C    -10.3006     12.1925      8.1721
C     -7.8347     11.4699      8.0920
C     -2.3231      4.8957      3.4327
C     16.4314      9.8455     19.2566
C      2.7514      3.8592      2.5250
H    -11.0740     11.6458      7.5721
H     16.2891      7.2505     13.5936
H     -2.8939      4.3686      1.2041
H     13.1207      9.1031     11.5780
H      2.3145      3.1678     -0.7071
O     -7.5807     19.7147      6.7198
C      0.6600      7.8202      4.4462
H     16.2136     10.6329     20.1304
C     -2.5546      8.2950      3.4532
C     -2.0065      7.1967      2.9327
C     -2.8088      7.5677      7.9874
H    -11.5259     15.3493      4.6920
H     14.5372      6.9620     11.1024
H     -6.6349     14.7805      2.4161
H    -14.2625     15.3685      8.7234
C      3.8598      2.0170      0.8641
C      0.0726      8.3369      2.1412
C     -0.1947      3.8804      3.8913
C     -5.5092     11.5319      7.2798
H    -10.7399     12.2797      4.5766
H     -3.7253      8.0968      7.4759
H     15.5251     10.2217     18.9046
H     14.5053      6.5948     13.3606
O     -0.0762      9.1941      6.2879
C     -6.4536     12.0779      8.0854
C      0.4340      6.7626      6.8275
C     15.2970      7.5942     13.9089
H     15.6293      9.1285     16.1424
C      0.5922      7.3467      3.0123
H     -4.1173     13.3404      9.2543
C    -10.1588     14.0703      3.5327
C    -12.5278     15.8826      7.2002
C     -2.4549     10.6340      6.5735
C     -2.3023      2.7656      4.7115
C     17.8901     11.9674     17.9302
C     -9.9583     16.6305     10.0227
C     -1.2663      7.5694      1.5481
C     -8.8701     12.3290      8.0723
N    -11.0967     12.9259      3.5772
H      3.5874      2.0840     -1.2206
C      3.2133      1.3240     -0.3118
O     17.3742      6.3858     15.2542
C     -3.4247     19.4465      0.8561
H     18.6982      9.3046     18.7100
H    -11.2416     14.0673      7.6557
C     -2.7511      4.2464      2.2890
C     -2.6139      7.7231      9.4055
H    -10.6080     14.7918      6.2484
H     -5.0011     17.6933      0.7999
C     -2.2222      9.8381      0.9996
H      2.3671      6.1422      9.4552
H     -2.7015      5.2545      5.8443
H     -1.0747      9.0070      4.1965
H     14.3502      8.7895     10.5374
H      2.1530      1.1232     -0.3233
H    -13.3594     16.9467      8.4936
C     15.1363      7.3131     15.2727
H      4.5595      5.6220      9.8267
C     14.3650      8.0324     11.3671
H     -9.6292     16.3012     10.8965
H     17.8722     10.8380     15.2658
C     -8.7400     21.2551      4.5761
C     -5.1244     20.2717      2.8286
C     20.2728     10.5061     13.9192
C     18.5991      8.4533     14.7154
C     -8.8881     19.2551      6.5481
C      1.7428      4.7863      2.3960
C     -6.7090     18.8808      0.3388
C     -7.2122     20.8496      4.4699
C     -4.7306     19.8763      1.3266
C      3.8512      5.2119      7.7184
C      1.2622      4.4643      1.0739
H     -5.1013     19.7484      5.0465
C     -6.8364     20.1520      5.6417
H     -3.0902     18.4546      0.8631
C     -5.6269     18.4687      1.3517
H     -0.2086      3.1426      2.9482
O     -5.5700     20.2892      5.7904
H    -10.4633     14.9623      2.9326
H     -0.3607      9.4220      2.6251
H     -8.6652     18.1193      1.1592
H     -8.1929     18.1995      4.6816
C     12.2420      7.2989     11.6820
C     16.0496      6.3389     15.9220
H      3.0918      7.4039      8.6635
C     -1.6398      4.0476      4.6092
C      0.3489      6.5998      5.4319
H     -9.8314     12.8861      5.7124
C      1.1863      5.6634      4.7059
H      3.0942      0.4376      1.2644
H     -0.3260      6.2447      8.7420
C     -4.7953      6.6109      8.9875
C     -8.7026     13.8893      8.3315
O     -6.6989     17.2377      5.0137
C     -6.6089     20.5441      3.0727
C     -3.1658      9.9223      5.4675
C     -0.1435      6.0785      2.9402
C     -1.4149      6.0533      3.6924
H     17.4397      8.6190     20.4355
H     15.2704      8.1985     11.9114
H     -2.2028      2.1636      3.8249
C    -10.9984     13.1158      8.9021
C      0.6614      5.0924      3.5506
C     -7.6509     16.5694      2.5687
H      0.4447      4.9396      7.7576
H     -2.3519     11.8804      8.0332
H     -5.8009     10.6824      6.6829
C      2.2205      6.9397      8.6942
C     -1.6627      5.0585      5.8728
C      3.8290      0.7502      1.8973
C      1.4241      4.5978      5.7691
C      1.8335      6.5656      7.3817
C      2.0776      3.7663      0.2606
H     -1.3676      5.2208      1.4388
H      4.8581      2.3528      0.9133
H      3.6389      0.4508     -0.6942
H     -1.3379     10.6955      6.5321
H     -7.7388     14.4844      4.5137
C     -0.6632      8.6498      5.1305
C     -3.8057      7.3010      9.9839
H     -7.1036     19.5578      3.1247
H     20.1362     11.1488     13.1763
C     -4.2478     12.2044      7.6887
H     -2.6861     19.5875      1.7084
H     -2.3942     10.1498      4.7820
H     -7.1702     15.0935      9.6625
C     -0.4728      6.5620      7.7451
C    -12.2148     16.3106      5.1671
O     -4.0191     18.6440      4.3465
C     -1.8078      7.5956      5.6708
C     -6.7328     15.4143      7.5399
C     -7.7670     15.4992      6.6886
C     -9.5259     13.8723      5.9066
H     -4.9243      6.8722      7.8559
H      5.2178      3.7851      7.8724
C      1.4146      4.8710      7.1936
C     -9.2296     18.6286      5.2220
C    -10.1134     15.4744      9.0543
H     20.0960     10.7649     14.8298
C      8.3379      7.4200     11.1256
H      3.5189      5.6129      8.6101
H     10.5087      6.2567     11.3947
H     -5.5862     15.6598      7.5914
C     -9.0556     16.1795      4.7379
C     17.4726      9.6237     18.2347
C     -6.1151     13.2844      8.7716
C      5.3049      4.9042      8.0142
C     -7.3409     14.5014      8.7004
H    -12.0947     15.4841      9.2066
H     -1.6971      7.2724      9.1202
H     18.7226      9.4597     12.9847
C     14.7921     10.0109     13.6414
H     -9.0605     17.1306      9.9497
H     -2.4971      9.0917      2.8468
