249

C     32.7638     -3.7455     13.8457
C      4.3488      1.4284      6.7400
C      3.0615      3.1641      1.1014
C      7.0556      5.5032      2.8659
H      9.9382    -10.3374      1.5984
C      7.4468      3.7901      2.6971
C     16.1667     -8.8803      5.5577
C     28.9005     -5.3776     19.5635
C      5.9300      1.9406      4.1414
C     26.7486     -4.2822     13.5102
N     -0.2297      2.9509      6.0015
C      0.9486      5.9847      0.2648
O     11.9439    -11.3948      2.4693
C     16.1502     -8.9297      7.0766
H      0.7556      5.4347     -0.7389
C     28.5545     -6.6483     17.6067
C     29.6395     -2.0813     16.7447
H      1.5252      0.3800      9.4020
H      9.3163    -10.4804      4.5729
C     29.5544     -3.6598     16.1648
H      7.8894      3.7087      3.6827
H     25.0120     -6.0786     10.5835
H     11.6581     -8.2923      6.0891
C      3.0029      2.5490      7.4860
H     -3.5067     10.2421      0.2902
O     27.6275     -2.4643     14.7998
C      8.4489      0.3584      8.6196
C     19.6026     -6.7099     10.0050
H      1.9739      5.9050      9.5834
C      6.2778      2.8143      2.7973
H     18.1500     -8.3584      7.0025
H     -1.1454      9.0088      9.0692
H      5.3965     -2.5630      8.2228
C     30.5712     -2.1173     17.7745
C      9.8023     -4.4850      5.0512
O      1.8778      8.4464      4.9752
C     -1.8804      7.9002      6.8873
C     21.6014     -4.7667     12.3999
C     33.2840     -5.0742     13.0350
C      6.1446      7.2758     -0.4167
H      4.5587      3.1765      1.2722
H      2.1953     -0.8730      4.0037
H     -4.8446      5.1216      8.7375
H     28.6855     -1.9405     17.2214
C     19.9339     -6.0914     11.1926
C      8.0120      6.3635      3.5292
H     34.3364     -2.0212     14.0850
C     11.7793     -6.7747      4.8173
H     28.3351     -4.0754     21.2913
H      4.6852      0.8261      2.5353
H     30.7807     -6.4838     15.4693
C     10.2666     -1.5819      7.7528
C     18.3976     -7.0149      9.3381
C     28.7668     -5.2358     18.2275
C      4.5118      5.7717      0.8009
C     30.5201     -3.9479     15.0953
H      8.7296     -4.9342      4.7266
H      8.3704      8.4997      2.4461
H      3.7437      0.8473     10.4377
H      6.4373      0.1151      9.7455
H     31.8726     -0.9617     18.9861
C     -0.1909      2.2369      8.3912
C     25.9835     -4.3876     12.0688
C      1.5748      1.6860      6.9267
C     -0.3548      6.3425      1.2219
H      5.0579      7.5003     -0.9699
H     11.0575    -10.6551      3.6845
H      6.6259      4.1712      4.9010
C     22.8760     -5.3765     13.0844
O     27.4706     -2.0457     12.6286
C     29.0088     -4.1476     20.4498
C      3.5755      1.1742      9.3169
C      3.4421      1.4544      4.5322
H     -2.1279     10.7981      1.5854
H      3.4546      5.8433      0.3987
C      3.7537      3.4229      3.2529
H      8.6529     -3.4547      6.4203
C     -2.2583      8.6875      0.6889
C     23.7024     -5.7393     11.9445
H      0.1818      9.1209      7.6664
C      5.2308      2.9321      5.2352
H     30.6561     -0.0841     17.5986
H      8.4383      3.8638      2.1913
H      8.5260      1.3994      8.1931
C      2.9948     -0.7803      8.2387
C      5.5488     -1.6289      7.8865
C     10.6480     -8.1580      2.9780
C     29.0100     -3.0814     19.3939
C      2.7030      3.6540      2.4056
H      2.2280     -1.4339      7.7976
H     28.9729     -5.1744     13.9463
H     11.0958     -9.0735      0.7717
H     25.6734     -3.4263     11.7803
H      1.6524      3.4824     -0.5743
O      5.5664      7.0984      6.8570
C      0.4989      7.9209      4.4865
H     29.1136     -2.1833     20.0682
C     10.3140     -4.4406      3.5822
C     10.9111     -5.3824      2.7427
C     -3.0148      7.2450      7.3913
H      1.2544      2.3084      4.7341
H     27.6391     -5.6893     11.0711
H      5.9768      1.7514      2.2011
H     -1.1791      2.2374      8.5304
C      3.7488      1.6129      0.9397
C      0.0891      8.5577      1.8427
C     11.8736    -10.2255      1.6531
C      0.3262      3.8050      3.7731
C      7.9380     -1.3054      7.1989
H      1.0737      0.5249      3.8858
H     -3.8820      6.8582      6.6166
H     28.0654     -2.6809     18.8300
H      1.1556      6.9856     -0.0667
O      0.4099      9.0572      6.4365
C      6.7669     -0.5839      7.5783
C      0.2677      6.5845      6.7056
C     27.8556     -5.0998     13.9899
H     28.6037     -4.1639     15.7838
C      0.5552      7.6334      3.0282
H      8.8731      0.4868      9.5034
C      2.6038      0.9689      3.3644
C      0.2796      2.4173      7.0219
C     10.5455     -2.6788      6.7423
C     10.4040    -10.1286      4.4651
C     31.2886     -0.9459     17.9866
C      3.2347      3.6517     10.0594
C     13.2540     -9.9583      1.3784
C     -1.0862      7.9145      1.5020
C      4.5338     -0.7912      7.9888
N      1.8303     -0.1123      3.7046
H      3.9308      0.7026     -1.1207
C      3.1646      1.0589     -0.3538
O     29.9942     -6.5986     15.9106
C      9.4642      6.6515      0.9922
H     30.9903     -3.6843     19.1751
C     10.7273     -9.3075      1.7920
C     -3.1500      7.2791      8.8142
H      7.1706      5.0242      0.6122
C     -2.5653      9.9370      1.0097
H      1.2698      7.4523      8.9986
H     10.5239     -7.3838      5.9248
H     -1.1674      9.6590      4.7786
H     27.3864     -3.8341     10.7732
H      3.1843      1.8038     -0.9984
H     -0.2469      3.4231      8.6582
C     27.9083     -5.4277     15.3403
H     17.7517     -7.3056     10.2327
O      0.0511      9.0289      8.7196
C     27.3138     -4.7554     11.3866
H      2.6174      3.3353     10.7887
H     29.8243     -1.3263     15.9883
C      4.1048      8.3765      4.5073
C      7.8945      7.4972      2.6017
C     33.2182     -2.3098     14.0599
C     31.8793     -3.8057     15.1786
C      4.0716      6.3627      6.5737
C      2.1146      4.8827      2.3835
C      5.7117      6.3788      0.5714
C      5.6174      7.8986      4.4960
C      7.9403      6.8822      1.2358
C     17.0303     -7.8619      7.6226
C      1.8370      5.0065      0.9759
C      6.1078      7.9086      5.8056
H      9.4983      5.4620      0.8362
H     13.9276     -9.6947      2.1781
C      6.9477      5.7763      1.3259
H     -0.3041      3.0358      3.2011
O      7.4896      7.8082      6.0037
H     21.8478     -3.7369     12.3659
H      2.0869      1.5523      2.5168
H     -0.1578      9.6238      2.4303
H      4.7768      5.0159      1.2864
H      4.5399      5.6345      4.4410
C     25.0112     -5.4055     11.5162
C     28.7198     -6.2900     16.1915
H      0.1787      5.5786      9.2638
C     10.2199     -8.7110      4.2137
C     13.2543     -6.4526      5.3318
H      3.1846     -0.1717      5.4806
C     14.1468     -7.3805      4.7762
H      3.3054      0.0403      1.6508
H      0.6827      8.5141      9.0404
H     -0.5529      6.8445      8.5021
C     -4.9209      6.1680      9.0307
C      4.8442      0.7613      8.1539
O      5.7955      4.2653      5.1302
C      6.4181      8.0285      3.1273
C      9.4350     -3.1697      5.7692
C     -0.0920      6.1409      2.6819
C     11.4404     -6.7404      3.3016
H     29.9879     -4.1333     20.9238
H     28.3340     -4.6388     12.0120
H     26.9189     -2.3364     11.9677
H     11.1731    -10.2399      5.2768
C      2.4789      0.3191      8.8271
C      0.7499      5.0910      3.4351
C      4.9301      3.4060      2.3778
H      1.3270      4.0668      8.0099
H     10.7634     -2.1604      8.4447
H      7.7932     -2.0725      6.4406
C      1.1472      6.2430      8.8711
C     11.0101     -7.8016      5.3395
C      3.7180      0.7363      2.2176
C     14.5994     -8.6594      5.7482
C      1.4614      6.1071      7.3833
C      2.3826      3.9916      0.0423
H     -0.8389      5.4918      1.3014
H      4.4270      2.1994      0.1027
H      2.2180      0.2346     -0.2095
H     12.7158    -12.0190      2.2968
H     11.4707     -3.3738      7.2477
H      5.5684      1.1582      3.6735
C     -0.5622      8.7222      5.2735
C     -4.0138      6.9554      9.8612
H     32.8358     -1.8330     13.2100
C      9.1109     -0.7683      7.8863
H     10.3319      6.6290      2.0640
H      9.3210     -2.5798      4.8979
H      5.8954      1.9913      9.4119
C     -0.6536      6.8781      7.5304
C      0.9061      3.2516      5.0276
O      8.2849      5.9453      4.6986
C     -1.7848      7.7654      5.4804
C      6.3393      2.7966      7.5018
C      5.3298      2.3464      6.4971
C      3.7072      0.6990      5.5236
H     -5.2265      6.6379      7.9264
H      1.3617      8.6509      5.9568
C      1.6172      4.6357      7.1886
H     11.4935    -10.6461      0.6282
C      3.7543      5.5538      5.2657
C      3.1290      2.7692      8.9450
H     32.6783     -1.8987     14.7063
C     21.2156     -5.5058     10.9479
H     15.9335     -7.4595      8.3587
H     23.4291     -6.4014     11.0552
H      7.6382      2.9781      7.6456
C      3.8014      2.9404      4.6862
C     30.2054     -3.2968     18.5628
C      7.0667      0.3791      8.8933
C     18.2487     -8.2239      8.3557
C      6.0699      1.4749      8.4887
H      0.4664      1.4588      9.3020
H     -2.2475      7.5106      9.3430
H     13.3973     -9.2549      0.5879
H     13.8131    -10.8863      0.9255
C     27.5120     -3.0208     13.5877
H      3.0728      4.4901      9.5503
H      9.8974     -3.6659      3.0077
