260

C     19.5977     -3.7834      0.7070
C      3.9619      1.4862      6.9175
C      2.7255      3.1899      1.2618
C      7.6623      4.8084      2.4008
H     -2.2616      3.6542      2.5464
C      7.5778      3.2891      2.9163
C      3.2496      4.0068      5.3226
C      6.7780      9.5800     -2.3699
C     16.0491     -5.7390      6.5542
C      6.1813      1.8700      4.2972
C      6.3258      8.3955     -3.0513
C     13.6760     -4.1614      0.5842
N     -0.3190      3.3926      6.4561
C     13.5739      6.0714    -12.3007
C      3.2542      3.9859      6.8453
H     13.8250      6.5268    -13.2861
C     15.6789     -6.6294      4.2729
C     16.6215     -2.3898      3.5419
H      1.4513      0.3932      9.7980
H     -2.6209      2.7677      3.5682
H     18.1305     -6.9415      2.1503
H      6.3680     11.8742     -2.5102
C     16.6640     -3.8729      3.2165
H      7.7780      9.6744     -2.7252
H      7.0961      3.7511      3.7377
H     12.5742     -5.3807     -2.2627
H     -1.9804      5.2420      6.6341
C      3.0359      2.7899      7.6153
H      9.7793     -2.6092      0.0927
O     14.4244     -2.4640      2.0561
C      8.2200     -0.1289      8.5966
C      6.9323      5.8586     -3.2350
H     14.6517      5.6758     -3.8473
C      6.2753      2.3331      2.8468
H      6.7749      4.6264     -5.4006
H      6.9746      9.4806     -1.4449
H      4.5646     -2.5601      7.5770
H      5.2293      7.0736     -2.6988
C     17.5503     -2.3206      4.8032
C      9.8477     -4.3905      4.9571
O     14.9552      8.4961     -8.2028
C     11.3008      8.0522     -5.7627
C      8.6793      8.1938     -1.0523
C     20.5332     -5.0168     -0.0428
C      6.4572      7.1270     -0.7582
H      5.3276      3.7383      1.7531
H      1.7836     -0.1407      4.3618
H      8.4567      5.1974     -4.8042
C      6.9486      7.0357     -2.2189
C      7.7253      5.6644      3.4583
H     20.8076     -3.3216      2.1676
C     -1.2617      6.7206      5.0611
H     15.5677     -4.5685      8.3649
H      4.6505      1.0135      2.7137
H      5.2144     10.8708     -3.2357
H      4.2534      6.2413      0.0556
C     10.0112     -1.0450      7.2506
C      5.7260      5.3714     -3.6622
C     16.0117     -5.4442      5.0672
C      4.9852      5.6952      0.6208
C     17.5570     -3.7782      1.8506
H      9.0181     -5.0462      5.4784
H      8.6694      7.8540      3.6075
H      3.8549      1.1278     10.3925
H      6.4437     -0.1090     10.0354
H     17.2587     -0.5599      3.9291
C      0.0967      2.6682      8.7046
C     13.2248     -4.5194     -0.7485
C      1.6145      2.0700      6.9877
C     12.3547      6.2212    -11.4704
H      5.3095      7.6989     -0.8263
H     -1.5000      2.4546      4.4008
H      6.3858      4.6284      5.6490
H      5.5621     10.9525     -1.3151
C     10.1860     -5.4934     -0.0717
O     14.7244     -2.0884     -0.2207
C      6.8418      8.2552     -4.5421
C     16.1469     -4.5188      7.4770
C      3.4189      1.2556      9.3035
C      3.3057      1.4254      4.7771
H     11.1469     -2.2155      1.2932
H      5.5536     -1.0542      6.7747
C      4.0868      3.4031      3.4601
H      8.5066     -2.2941      5.2236
C     10.7182     -4.1620      0.7420
C     11.0471     -5.9536     -0.9740
H     10.0765     -2.9117      7.3313
C      5.3562      2.8480      5.2528
H     18.5823     -0.7468      5.5922
H      8.3342      2.6367      3.3426
H      8.5079      0.9356      8.2665
C      2.4826     -0.7112      8.4587
C      4.8516     -1.8175      8.3679
C     -2.3860      5.2969      3.4571
C     15.9340     -3.3150      6.4684
C      2.7567      3.8530      2.5561
C      4.9742      8.0562     -3.0665
H      1.9750     -1.7154      8.4513
H     15.6199     -4.0688      0.7943
H     -3.1345      5.3388      1.7161
H     15.3457      4.3151    -13.6168
O      5.4255      6.9727     -6.2128
C     13.7142      7.9252     -8.5575
H     16.2992     -2.4306      7.2754
C     10.1534     -4.1605      3.4568
C     10.6806     -5.2564      2.8040
H      5.9907      8.7127     -5.1203
C     10.1094      7.5786     -5.2074
H      0.3148      2.5030      4.8927
H     14.5108     -5.5106     -2.0865
H      6.3634      1.8594      1.8086
H     -0.3399      1.7762      9.0427
C      3.5081      1.8748      1.2258
C     12.8313      8.5908    -11.0999
C     -0.3903      3.9985      4.0467
C      7.2448     -1.7180      7.2149
H      2.1065     -0.7918      2.9378
H      9.3141      6.7039     -5.7196
H     15.4280     -5.7519      0.2050
O     13.1685      9.5665     -6.7478
C      6.0552     -1.2301      7.7768
C     13.4848      6.6236     -6.1482
C     15.0461     -4.8963      0.9232
C     13.5702      7.6553     -9.8840
H      8.7700     -0.1471      9.4471
C      2.7670      1.1934      3.4760
C      0.3843      2.7424      7.2940
C     10.3017     -2.3032      6.5197
C     -2.3075      3.0716      4.6185
C     17.7298     -0.9969      4.8622
C      2.5419      3.5929      9.8682
C     11.5607     -4.9082      1.6675
C      3.8390     -0.7347      7.9865
N      2.3815     -0.1341      3.6294
H      1.7374      1.8499      0.2057
C      2.7487      1.5600     -0.0775
O     17.2430     -6.2205      2.4177
C      9.4666      6.7199      0.8851
H     18.2304     -3.5834      6.4057
H      1.8793      1.2346      7.5861
C     -2.4347      4.6688      2.2427
C      9.9830      7.7511     -3.5272
H      1.7239      1.8910      5.8961
H      8.0316      4.7969      0.3917
H      7.7301      9.7199     -6.0234
C     10.5051     -2.8365      0.7668
H      4.2256      8.1845     -3.8602
H     15.8315      6.7476     -3.9011
H     -3.1272      5.7059      5.5929
H     11.9278      9.5169     -8.5651
H     14.0031     -3.5940     -2.2001
H      3.0761      0.3658     -0.4130
H     -0.4829      3.4974      9.3904
C     14.9404     -5.5923      2.2115
C     14.3604     -4.3711     -1.6539
C      5.9818     10.8834     -2.3783
H      1.7383      3.3271     10.5036
H     16.9796     -1.9005      2.4440
C      4.2552      8.3896     -8.3578
C      7.7868      7.1899      2.9890
C     20.4459     -2.6788      1.2667
C     18.7891     -4.2111      1.9918
C      4.2271      5.9480     -6.8010
C      1.5941      4.6877      2.5225
C      6.2065      6.0015      0.4023
C      5.6397      7.6922     -8.5833
C      8.0372      7.0648      1.1889
C      4.3456      4.9912     -5.6330
C     14.3778      5.0701    -11.9306
H      8.7706      6.1916      4.8852
C      6.1731      7.3753     -7.1373
H      9.6371      5.6115      0.6585
C      7.5648      5.6235      1.1281
H     -0.6819      3.4076      3.1037
H     10.8489      8.2868     -3.1103
O      7.4418      7.4467     -6.8076
H      9.3012      9.2049     -1.0676
H      2.0177      2.0984      3.3296
H     12.7090      9.5382    -10.5084
H      4.5135      4.8688      0.8357
H      4.7898      6.1661     -8.6236
C     12.0383     -5.1295     -1.3842
C     15.6958     -6.3886      2.8618
H     14.2056      7.3048     -3.7843
C     -1.7078      4.5135      4.4951
C      0.4587      6.7099      5.2288
H      4.7544      8.6183     -2.3358
H      2.8165     -0.1887      6.3451
C      1.3438      5.6521      4.7681
H      3.1613      0.0293      2.0230
H     12.1143      5.9540     -5.1679
C      8.1641      6.0929     -4.1650
C      4.3415      0.5942      7.9811
O      6.1760      3.7935      5.3072
C      6.4745      7.8252     -9.5616
C      9.5412     -2.7639      5.2540
C     12.7675      6.3873    -10.0282
C     -1.6742      6.4418      3.5118
H     17.1622     -4.3018      7.8202
H     -3.1606      3.1026      5.1566
C      2.3498      0.3050      9.3580
C      0.4235      5.1818      3.4979
C      5.1930      3.2803      2.6853
H     14.4136      4.5451     -5.2406
H      9.0097      8.4352     -5.1212
H     10.6899     -0.9355      8.0580
H      6.6109     -2.1831      6.3840
C     14.8268      6.5034     -4.2535
C     -1.9202      5.4778      5.6197
C      3.6709      0.9162      2.2721
C      1.5529      4.4127      5.4205
C     14.9167      6.5800     -5.7215
C     15.3090      4.2093    -12.5592
H     -1.5920      5.0576      1.5928
H      4.6598      1.4012      0.6816
H      2.8774      2.2252     -1.2070
H     11.3283     -2.5455      6.3317
H      5.3540      0.9916      4.4012
C     12.6491      9.0930     -7.8801
C      8.8915      6.6791     -3.1711
H     17.7275     -5.4114      2.3539
H     21.0762     -2.0700      0.6394
C      8.6201     -1.2360      7.6599
H      9.7287      6.9497      1.8080
H     10.0558     -2.2129      4.4465
H      5.7059      1.6529      9.1336
H     15.0160     -1.1284     -0.1534
C     12.2640      6.9491     -5.4721
C      0.2204      3.5363      5.3323
O      8.4708      5.3887      4.6108
C     11.3102      8.1680     -7.3890
C      6.2651      1.9509      7.3259
C      5.2618      2.0273      6.4352
C      3.3958      0.6800      5.8977
H      6.7585      7.2685     -4.9247
H      5.7834      3.6370     -4.4219
H      8.0757      9.8614     -4.0253
H     13.4892      8.9248     -6.0065
C     14.8903      4.9149     -6.0271
C      3.7732      5.4326     -8.1602
C      3.0834      2.7083      8.9863
H     19.5384     -2.2091      1.9022
C      8.4589      6.9431     -1.9199
H      3.9338      5.5959     -4.8770
H     10.7335     -6.7895     -1.4138
H      7.3065      2.2750      7.1241
C      3.8671      2.9265      4.6944
C     17.2603     -3.5680      5.6852
C      6.7383     -0.0837      8.9531
C      8.0337      9.1581     -5.0392
C      5.6596      4.7275     -4.9322
C      5.8594      0.9064      8.2983
H      0.9562      2.5426      9.2557
H      9.7443      8.7867     -3.6313
H     10.0862     -0.2403      6.4470
H     18.9493     -3.3891     -0.1725
H      8.5205      6.4321     -1.0528
C     14.1375     -2.6397      0.9451
H      2.5196      4.4964      9.6193
H      9.1254     -3.6783      3.0122
