260

C      6.6938      8.8768      0.7440
C      4.1688     14.5350      6.8256
C     16.1055      3.2310     14.1988
C      7.3974     18.0307     15.3677
H      9.7189      3.1692      2.3120
C      7.5822     16.5710     15.6248
C      3.1470     16.9790      5.4609
C      6.7792     22.5703     10.4619
C      3.1283     20.1047      6.6063
C      6.4034     15.3000     16.9527
C      6.3587     21.5071      9.5857
C     13.6645      8.9560     13.7774
N     12.6172      3.0705      6.1570
C     13.4914      5.8480     13.4396
C      3.3276     16.7817      6.9298
H     13.0041      5.9395     12.5442
C      2.6381     19.1889      4.5069
C      3.9937     10.7087      3.3766
H      1.6024     14.0402     22.4842
H     10.1022      2.9315      3.7075
H     17.5004      5.6111     15.5578
H      5.2464     23.5399     11.7882
C      3.9261      9.3418      3.3081
H      7.5216     23.3939     10.2978
H      8.4150     16.1149     16.2011
H     12.6092      6.8414     11.1259
H     12.1995      5.4360      6.4262
C      3.0606     15.4069      7.2693
H     10.2541     10.2850     12.8160
H      7.2182     15.4877     17.5935
O     14.4544     10.2070     15.2873
C      8.1845     12.5020     21.6672
C      6.6718     18.8627      9.7008
H     13.9047      6.9363      9.4405
C      6.4404     15.6563     15.5806
H      6.4540     18.0253      7.7382
H      7.0494     22.1253     11.3700
H      4.8212     10.4855     21.4068
H      4.8239     20.3742      8.9287
C      4.2079     11.0750      4.6686
C      9.9436      8.4409     17.8541
O     14.7356      8.6722      5.0687
C     11.2842      7.6766      6.9189
C      8.6570      7.9693     12.2449
C      7.4793      7.8226      0.2171
C      6.1835     20.1992     12.0986
H     18.2089      4.2101     14.6461
H     15.4482     -0.5707     17.6319
H      8.4864      6.0534      7.9488
C      6.8203     20.1969     10.7032
C      7.6691      6.0072     16.3432
H      8.7948      9.5066      1.1522
C     11.7957      6.5777      4.9623
H      3.3968     21.2789      8.2442
H     17.6555      0.0542     15.2100
H      5.1351     24.0197     10.1258
H      3.8498     19.2155     12.3844
C      9.9270     11.8787     19.6457
C      5.5058     18.3545      9.4421
C      2.8574     20.7163      5.0835
C      4.2792     18.8219     13.2645
C      4.4525      8.9493      2.0031
H      9.1786      7.8237     17.9531
H      8.6510      8.0983     16.1052
H      4.4216     14.4127     22.9829
H      6.3393     12.6216     22.7340
H      4.7755     12.9765      4.2383
C     12.9648      2.9074      8.5151
C     13.1185      8.5778     12.4265
C     14.6477      2.1627      6.6090
C     12.4012      6.5567     14.3129
H      5.2782     20.8853     12.4432
H     10.3127      2.8491      5.8295
H      5.8318     17.6803     17.3286
H      4.6187     23.0242     10.5790
C      9.9518      7.4340     13.0092
O     15.2837     10.9514     13.2099
C      6.6897     21.4521      8.1784
C      3.6902     21.3340      7.2380
C      3.5687     14.2326     22.2162
C     16.3753      1.5722     17.7697
H     11.3163     10.5135     14.2804
H      5.9084     12.6530     19.6444
C     17.0306      3.5285     16.1861
H      8.6526      9.5102     18.7662
C     10.6773      8.5897     13.6365
C     11.0462      6.8281     12.0733
H     10.8182     10.2313     20.5358
C      5.5186     15.8728     18.1968
H      5.7161     12.4653      5.4649
H      8.3607     16.8629     14.8064
H      8.6535     13.4916     21.9474
C      2.4383     12.5068     21.2068
C      4.9534     11.5349     20.8801
C     10.5942      5.1765      3.2931
C      3.3773     22.8133      6.6612
C     16.0093      4.0050     15.3779
C      4.9847     21.4426      9.7149
H      1.6276     11.7209     21.3287
H     16.2195      8.5434     14.1439
H      9.8256      4.6257      1.2152
H     15.0754      3.5711     12.2560
O      5.6181     19.5476      6.5606
C     13.5169      8.0990      4.5184
H      3.5890     23.4300      7.6170
C     10.2308      8.5693     16.4828
C     10.9721      7.7117     15.8956
H      5.8170     22.0831      7.6946
C     10.2291      7.6889      7.6336
H     14.7537      7.3207     11.6372
H      6.0876     15.0231     14.9434
H     13.4908      2.8236      9.5825
C     16.7060      1.9579     13.9232
C     12.7615      8.7620      2.1939
C     12.4677      4.1767      4.1938
C      7.4153     11.5655     19.6000
H     14.1980     -0.3619     16.9294
H      9.4131      7.3019      7.1640
H      2.2911     22.9539      6.7121
O     12.7199      9.3647      6.3486
C      6.2781     11.8883     20.4176
C     13.6636      6.9949      6.7804
C     15.1019      7.8635     14.1228
H      2.9298      8.6306      3.3072
C     13.4862      7.7228      3.0085
C     15.7096      0.9960     16.5872
C     13.4966      2.6043      7.2240
C     10.4382     10.4369     19.5249
C     10.3187      3.2323      4.7875
C      4.5777     12.4769      5.2512
C      2.8467     16.6405     22.4608
C     11.5400      7.9476     14.5478
C      3.9113     12.4352     20.7555
N     15.3213     -0.3425     16.7421
H     15.1928      1.4409     12.5149
C     16.1259      1.2901     12.8258
O     16.9940      6.5700     15.6214
C      9.3254      6.3188     13.7711
H      5.4880     22.5964      6.0380
H     14.6128      0.9597      6.9496
C     10.1873      4.4373      2.3167
C     10.2769      7.3642      8.9625
H     14.8713      2.1314      5.4470
H      7.6515     17.8052     13.5830
H      7.5082     23.1235      7.7885
C     10.6237      9.9110     13.7176
H      4.2185     22.1504      9.1791
H     16.0831      6.3446      9.1944
H     10.5054      6.0882      6.4582
H     11.9856      9.3892      4.2393
H     13.7163      8.5542     10.2195
H     16.0569     -0.0507     12.7983
H     12.3503      1.8556      8.6933
C     14.8181      7.6530     15.5345
H      4.8584     18.7152     10.4889
C     14.2558      8.3881     11.4399
C      5.5436     23.3633     10.8176
H      3.0122     16.7122     23.7437
H      4.0198     11.6285      2.8610
C      4.1116     21.4383      4.6065
C      7.7566      7.2405     15.7411
C      7.7278      9.5703      1.5136
C      5.7692      8.5936      1.8983
C      4.2319     19.0992      6.4432
C     14.9092      4.9486     15.4039
C      5.7900     18.8901     12.9551
C      5.8083     20.8539      4.2784
C      7.9416      6.8071     14.0535
C      4.2108     17.8615      7.4305
C     14.4318      4.9406     13.7678
H      8.2852      5.9463     18.3443
C      6.3183     20.1576      5.5688
H      9.2739      5.4366     12.9444
C      7.0236     18.4965     13.9979
H     12.3248      3.3170      3.3352
H     11.1964      6.8380      9.1681
O      7.5234     20.3996      5.7442
H      9.0540      8.7400     11.9693
H     12.8478      9.6892      2.8147
H      4.0351     18.0870     14.0982
H      4.5265     18.5513      4.3836
C     12.2849      7.3684     12.0455
H      6.9177     17.2351     18.5839
C     15.5614      6.3091     15.9475
H     15.2362      8.0085      9.1456
C     11.0758      4.4532      4.5070
C     13.4916      6.7336      5.2245
H      4.1891     20.9231     10.3307
H      2.7242     13.0156      6.0089
C      1.4003     18.5592      4.6535
H     15.9941      0.2239     14.6564
H     12.4896      7.2360      8.5146
C      8.0607      6.2375      8.8917
C      4.3602     13.7540     20.9925
O      6.0056     17.2396     18.2256
C      6.2614      7.9533     15.9119
C      9.6311      9.6229     18.4850
C     12.6145      6.3347      2.7964
C     11.4304      6.4704      3.6089
H      4.6484     21.1633      6.9960
H     15.2972      8.8247     10.9974
H      9.5599      3.8589      4.6795
C      2.4035     13.3432     22.3393
C     13.6520      5.1311      3.2205
C     18.2386      3.6536     15.4522
H     14.0935      4.5163      7.6527
H      8.7305     21.8742      7.3435
H     10.9189     12.1894     20.1860
H     14.1464     11.0434     16.0509
H      7.3913     10.7883     18.7960
C     14.9935      6.9262      8.9198
C     11.2160      5.5011      5.7989
C     16.6834      0.6562     15.2411
C      1.4947     17.4533      5.5207
C     14.9318      6.5628      7.3712
C     15.3129      3.9617     13.2724
H     11.5154      5.8389     13.9793
H     16.6113      1.2914     11.8402
H     11.3077     10.6674     19.1165
H      6.0530     14.3267     17.2045
C     12.2631      8.7614      4.9834
C      9.1299      6.8154      9.5301
H      4.7930     19.5147     13.8419
H      7.5784     10.4416      1.2939
C      8.5236     12.2672     20.2339
H      9.7532      6.2504     14.5640
H      9.1632     10.5931     17.8383
H      6.0454     14.6827     22.4457
C     12.4779      7.2627      7.4959
C     13.4456      3.5193      5.0382
O      8.4514      5.7156     17.3992
C     11.2270      7.8040      5.4232
C      6.6387     14.9991     20.4110
C      5.5541     15.1271     19.4490
C      3.6011     13.6973      5.8354
H      6.5834     20.1896      7.9454
H      5.7006     16.6187      8.6242
H      8.2840     22.9045      8.3939
H     13.7549      9.1669      6.5666
C     14.8846      4.8542      7.1417
C      3.7266     18.5298      5.2354
C      3.0281     15.4232     21.7738
H      7.7123      9.4442      2.6275
C      8.3004      6.9622     10.9838
H      3.8186     17.9570      8.6284
H     10.6480      6.0152     11.3977
C     16.9651      3.0303     17.6966
C      4.4087     22.8876      5.4777
C      6.7029     12.6952     21.6127
C      7.9449     22.1556      7.6755
C      5.4521     17.5346      8.2385
C      6.0276     14.0608     21.4568
H     12.0803      3.6691      8.5950
H     10.0426     11.9397     18.5854
H      6.2644      9.3887     -0.2291
H      8.3177      6.0102     11.5298
H     11.6174      3.1808      6.2846
C     14.4553     10.1701     13.8537
H      2.6855     17.7500     22.2969
H      9.7300      9.5510     16.3648
