262

C      6.5512      9.0580      1.0321
C      4.1644     14.4035      6.9894
C     15.8971      3.1359     14.3326
C      7.0264     17.9105     15.4607
H     10.1389      3.3286      2.8679
C      7.3331     16.4303     15.8554
C      3.2021     16.9893      5.5151
C      6.7339     22.5865     10.6845
C      3.3375     20.2149      6.5289
C      6.0557     15.0636     17.2251
C      6.1798     21.5057      9.8142
C     13.8776      8.7215     13.8768
N     12.7836      3.0547      6.1205
C     13.5370      5.9062     13.4345
C      3.3611     16.8858      6.9703
H     13.1796      6.4318     12.3460
C      2.9702     19.2526      4.4623
C      3.9440     10.6263      3.6098
H      1.1237     13.7842     22.5718
H     10.2415      2.5526      3.9862
H     17.6887      7.3535     15.8933
H      5.8801     24.5212     11.4025
C      3.9189      9.3354      3.2704
H      7.2734     23.2609     10.0048
H      7.7490     16.6936     17.0446
H     12.4122      6.8390     10.8269
H     12.3979      5.2735      6.1652
C      2.9886     15.6150      7.5782
H      9.6667      9.9931     13.0842
H      7.0093     15.4318     17.6262
O     14.4883     10.6229     15.4911
C      8.1698     12.6405     21.6017
C      6.6796     19.2670      9.4948
H     13.7943      7.1571      8.9210
C      6.1025     15.4720     15.8054
H      6.4512     18.4240      7.6795
H      7.0828     22.2692     11.7632
H      4.3304     10.3424     20.9482
H      4.2986     20.4969      8.7148
C      4.1865     11.0540      4.8577
C      9.8567      8.4290     17.9116
O     14.7584      8.6187      5.0028
C     11.3354      7.6820      7.1799
C      8.8610      8.1070     12.1509
C      7.3215      8.0575      0.0760
C      6.0207     20.1576     12.0860
H     18.0401      3.5104     14.5076
H      4.3608      9.9223      1.0942
H     15.6587     -0.5715     17.4637
H      7.9750      6.4167      7.8809
C      6.6179     20.2647     10.7588
C      7.5567      5.9275     15.9736
H      8.6546      8.8668      1.5539
C     11.8033      6.5994      4.9605
H      2.9378     21.4868      8.1766
H     17.7240      0.7102     15.6336
H      5.2535     23.5735      9.9013
H      3.3841     19.3368     13.0066
C      9.7395     12.0223     19.6695
C      5.5279     18.6203      9.2120
C      3.0299     20.6956      5.1054
C      4.3317     18.8409     13.4297
C      4.3207      9.0096      1.8660
H      9.0457      7.6929     18.6155
H      8.2648      7.8225     16.1877
H      3.8798     14.8207     23.3507
H      6.1151     12.4747     22.3606
H      4.4302     12.6723      3.9151
C     13.0410      3.1095      8.4436
C     13.1121      8.0927     12.3896
C     14.6538      1.8340      7.1457
C     12.4028      6.1812     14.2765
H      5.0432     20.7578     12.2550
H     10.5624      2.8075      5.8180
H      5.6388     17.3493     17.0798
H      4.9035     22.6577     11.1172
C      9.9959      7.2966     12.8903
O     15.0634     10.8727     13.3817
C      6.6619     21.5462      8.2847
C      3.5982     21.5240      7.3136
C      3.5044     14.3650     22.4707
C     16.3266      1.5956     17.7466
H     11.2903     10.1134     14.0388
H      5.8885     12.9996     20.2713
C     17.0369      3.7455     16.3324
H      8.4166      9.9685     18.1618
C     10.6883      8.1314     13.6491
C     10.9820      6.5255     12.0616
H     10.4616      9.8147     20.2337
C      5.3661     15.8009     18.1988
H      5.7069     12.2872      5.3356
H      8.2278     16.1858     15.4006
H      8.4333     13.5282     21.9088
C      2.4706     12.5161     21.4532
C      4.6778     11.4564     20.9191
C     10.8587      5.1126      3.1877
C      3.1418     22.7841      6.7746
C     15.7906      3.7983     15.5236
C      4.5864     21.4353      9.5716
H      2.0020     11.6513     21.0575
H      9.1932      4.5329      1.7039
O      5.7022     19.3396      6.2046
C     13.5773      7.9694      4.6338
H      3.2086     23.7094      7.2455
C     10.2250      8.4555     16.3130
C     10.9625      7.5476     15.6814
H      5.9441     22.2684      7.8085
C     10.0992      7.6115      7.9523
H     14.2397      2.5897      4.7086
H     15.2043      7.7314     12.0019
H     13.6739      2.9001      9.3144
C     16.7527      1.8329     14.0026
C     12.8512      8.5540      2.0135
C     13.0208      3.9500      3.8474
C      7.0180     11.7194     19.7800
H     14.4746      0.3828     17.6040
H      9.2747      7.5034      7.1556
H      2.2210     22.9855      5.9815
O     12.8072      9.6308      6.3309
C      6.0674     11.8058     20.6861
C     13.6058      7.0108      6.7993
C     15.0849      7.8667     14.1328
H     15.8695      8.3761     15.7351
C     13.5817      7.8086      2.9825
H      9.1176     12.4088     22.0201
C     15.9130      1.1014     16.3870
C     13.5220      2.6537      7.1550
C     10.3794     10.7144     19.3561
C     10.3063      3.1387      4.7956
C      4.7007     12.4768      5.0377
C      2.9079     16.5882     22.8996
C     11.9131      7.5545     14.3242
C      3.8933     12.4840     21.3106
N     15.0203     -0.1514     16.7105
H     15.7999      2.3353     12.1607
C     16.1446      1.3292     12.5917
O     17.2044      6.4437     15.4210
C      9.0618      6.5357     13.7282
H      5.2353     22.8612      6.5721
H     14.5144      0.7869      6.9858
C      9.9724      4.3780      2.3154
C     10.2243      7.7996      9.4166
H     15.0486      2.2552      6.3060
H      7.4246     17.7108     13.3899
H      7.7083     22.9270      7.2162
C     10.6623      9.4327     13.4612
H      4.8280     22.1832      8.7025
H     15.3134      6.0232      9.6110
H     10.5257      5.6641      6.1376
H     12.6181      9.7013      4.4122
H     13.7726      7.8664     10.6969
H     15.4115      0.5803     12.7823
H     12.6398      2.1395      8.6671
C     14.9492      7.6467     15.4686
H      4.6677     18.6906      9.9299
C     14.3632      8.3040     11.4841
C      5.6567     23.4295     10.9668
H      3.1381     16.4913     24.0194
H      3.6373     11.6410      2.9153
C      4.1870     21.5350      4.6575
C      7.5342      7.3400     15.5471
C      7.7868      9.8955      1.7931
C      5.5376      8.2752      1.8177
C      4.3278     19.0578      6.2424
C     14.9466      5.0033     15.4607
C      5.5873     19.0345     13.0710
C      5.3805     20.8651      4.1431
C      7.6587      7.0090     13.9995
C      4.3149     17.9634      7.5156
C     14.5169      4.9907     13.9792
H      9.4672      5.7799     17.3372
C      6.0801     20.0704      5.1948
H      8.8665      5.5908     13.4194
C      6.7588     18.3576     14.0573
H     13.1804      3.5538      2.7749
H     11.4463      7.6093      9.7115
O      7.2664     20.6349      5.4488
H      9.3996      8.7180     11.4555
H     14.9119      1.6095     15.8220
H     12.1341      9.2921      2.2544
H      3.6689     17.7852     13.8037
H      4.4946     18.1140      4.2957
C     12.0552      7.2392     11.7660
H      6.8762     17.6920     18.6382
C     15.7897      6.3609     15.7875
H     15.4055      7.8947      8.8721
C     11.1429      4.3681      4.5374
C     13.3301      6.7272      5.3306
H      3.7880     21.2179     10.3733
C      1.4771     18.6203      4.7850
H     16.4650      0.0267     14.7142
H     12.1890      6.6531      8.6682
C      8.0290      6.7052      8.9476
C      4.4506     13.7880     21.4295
O      6.0336     17.0497     17.9586
C      6.1945      8.1233     15.9773
C      9.6260      9.9024     18.2691
C     12.8614      6.4173      2.9480
C     11.5482      6.4533      3.4548
H      4.6612     21.4178      7.3413
H     14.7588      9.5013     11.6383
H      9.2657      3.4331      4.8278
C      2.3489     13.5030     22.3876
C     13.8929      5.2712      3.4121
C     17.9495      3.3573     15.4198
H     14.3552      4.9182      7.9507
H      8.8002     21.7702      7.7876
H     10.1568     12.1803     20.8486
H     14.9616     11.5464     15.4772
H      6.5798     10.6856     19.1817
C     14.9304      6.7907      8.7632
C     11.4139      5.2678      5.6891
C     16.7536      0.8254     15.2570
C      1.7485     17.3028      5.5825
C     14.9579      6.6089      7.3455
C     14.9952      3.9658     13.3199
H     11.6128      5.3516     14.2195
H     17.7992      2.0574     13.6013
H     17.3600      0.8248     12.3446
H     11.4270     10.9878     19.1386
H      5.9556     14.0181     17.3684
C     12.5700      8.9848      5.0957
C      8.8655      7.3875      9.8839
H      5.3738      7.3494      1.2611
H      8.2652     10.8131      1.8818
C      8.3334     12.0053     20.0808
H      9.5529      6.8484     14.7668
H     10.1101     10.3112     17.4205
H      6.4155     14.7210     22.2665
C     12.4463      6.9287      7.6914
C     13.5769      3.3245      5.1527
O      8.3124      5.6313     17.2579
C     11.4122      7.9496      5.5519
C      6.3965     14.9296     20.2006
C      5.3502     15.1026     19.5795
C      3.8736     13.4843      5.8769
H      6.4670     20.8230      7.2936
H      6.3573     16.8299      8.2325
H      8.4021     22.7804      9.1260
H     13.4993      8.8718      6.7020
C     14.9645      5.0634      7.0819
C      3.8554     18.3097      5.1099
C      2.9394     15.5489     21.9689
H      7.6890      9.8077      2.8949
C      8.1729      7.3328     11.0319
H      3.9427     18.2569      8.4942
H     10.4352      5.8141     11.6038
H      7.2769     15.5444     20.0644
C     16.9223      3.0995     17.8136
C      4.3662     22.7866      5.6329
C      6.8220     12.7447     21.7683
C      7.9271     22.4155      8.0475
C      5.6516     17.8496      8.0263
C      6.2653     14.0524     21.4624
H     12.1463      3.9297      8.2905
H     10.1164     12.9662     19.0787
H      6.3831      9.7302      0.0907
H      8.4559      6.2473     10.8763
H     11.8937      3.7954      6.4371
C     14.7088     10.0885     14.3197
H      2.1799     17.3522     22.6057
H      9.7436      9.4867     15.7411
