261

C     19.6715      9.3069     13.8576
C      3.8960      1.5383      6.9686
C      3.3169      3.4555      1.2312
C      7.3787      5.1306      2.4108
H     -2.0831      3.2079      2.3922
C      7.7444      3.6724      2.8241
C      3.1907      4.1883      5.5054
C      7.1149      9.4845     10.5838
C     15.8499      7.2033     19.3807
C      6.1219      1.9984      4.3717
C      6.5483      8.3340      9.7642
C     13.9054      8.7841     13.6837
N     -0.1526      3.3414      6.3929
C     13.7221     -6.9907      0.5962
C      3.2111      4.0457      6.9695
H     13.6587     -6.7571     -0.5020
C     15.7656      6.2894     17.3473
C     16.9451     10.8425     16.5057
H      0.8036     -0.1226      9.3663
H     -2.2358      2.3117      5.3354
H      6.4315     11.8425     10.7183
C     16.9737      9.4696     16.1649
H      8.2095      9.9421     10.1081
H      7.8977      3.5395      3.8863
H     12.6845      6.9004     10.8540
H     -1.7776      5.1129      6.5896
C      3.0090      2.7466      7.5010
H     10.0627     -2.8297      0.0048
H      6.8349      1.4015      5.0341
O     15.0384     10.6565     14.8116
C      8.4911      0.3788      8.2982
C      6.9248      6.0637      9.9363
H     15.3340     -7.5436      8.8848
C      6.4489      2.5973      3.0260
H      6.6905      5.2877      7.5544
H      6.8424      9.2206     11.7482
H      5.1388     -2.5100      7.5647
H      4.8385      7.6069      9.3411
C     17.5126     11.0577     17.6832
C      9.8797     -4.7305      4.8996
O     14.7631     -4.3923      4.9515
C     11.2552     -5.3201      7.1350
C      8.5787      8.3552     12.2457
C     20.2476      8.2107     13.1727
C      6.2302      7.4740     -0.5381
H      5.4299      3.8063      1.6309
H     16.9325      9.7574     14.1667
H      1.0584      0.4699      4.7985
H      8.8474     -7.4358      8.4842
C      6.7433      7.1866     10.8488
C      7.9059      6.1297      3.3495
H     21.2223      9.5319     15.6180
C     -1.2267      6.4347      5.1212
H     14.5997      9.0085     20.5069
H      4.5432      0.7120      2.9287
H      5.7694     11.0958      9.4512
H      4.0850      7.0152     -0.1011
C      9.9421     -1.7450      7.4292
C      5.7642      5.3577      9.4616
C     15.8760      7.5976     18.0091
C      4.5839      6.0477      0.0501
C     17.3595      9.0595     14.7984
H      9.1891     -5.5924      5.3532
H      7.9625      7.9817      3.4017
H      3.5283      0.7859     10.2160
H      6.9202      0.0658     10.2677
H     17.6404     13.1313     17.8704
C     -0.1940      2.6469      8.8969
C     13.1962      8.4380     12.2330
C      1.6725      2.1166      6.9419
C     12.5276     -6.4974      1.3953
H      5.5064      8.1138     -0.4531
H     -3.5640      3.5460      4.4484
H      6.6234      4.1273      4.8022
H      5.6588     10.7049     11.5422
C      9.7635      7.6732     12.9197
O     14.7326     10.9207     12.6354
C      6.8461      8.3877      8.1238
C     15.6727      8.6163     20.3509
C      3.0688      0.9578      9.2683
C      3.2227      1.7906      4.5064
H     11.4308     -2.5579      1.4312
H     18.6353     12.2524     19.2228
C      4.1849      3.8275      3.2797
H      8.1662     -4.3555      6.0053
C     10.8158     -4.4569      0.7658
C     10.9907      6.8498     12.1432
H     10.2185     -3.6920      7.4421
C      5.3678      2.9674      5.4317
H     17.1431     12.0730     19.2378
H      8.4961      3.0594      2.2807
H      8.1331      0.9023      7.3519
C      2.4982     -1.0682      8.1915
C      4.9981     -1.5511      8.1400
C     -2.1499      5.2233      3.1561
C     16.2233      9.8397     19.5147
C      3.0514      4.0413      2.5558
C      5.1845      8.5933      9.6331
H      2.0669     -0.7707      7.1971
H     15.9508      8.0754     13.2515
H     -1.8170      4.4311      0.9438
H     15.0805     -9.0146     -0.7339
O      5.3454      7.1421      6.6925
C     13.4759     -4.9886      4.4039
H     16.5854     10.7222     20.1191
C     10.0321     -4.5656      3.4599
C     10.8526     -5.4435      2.8835
H      5.9977      9.2227      7.7801
C     10.0375     -5.8128      7.9962
H      0.8812      2.3481      4.5793
H     13.9293      7.6573     10.4490
H      6.7245      1.8153      2.0884
H      0.3450      1.5530      9.2118
C      3.9255      1.9123      0.9734
C     12.9757     -4.3821      1.9925
C     -0.2233      4.0538      3.9733
C      7.2506     -1.2755      7.1746
H      1.7583     -0.5234      3.4697
H      9.2157     -6.0276      7.3532
H     15.2690     10.5432     19.3780
H     14.5035      6.9673     13.6987
O     13.0707     -3.3249      6.4686
C      6.2892     -0.8872      8.0903
C     13.4690     -5.8435      6.8358
C     15.0498      7.8805     13.8015
C     13.6430     -5.2401      2.9888
H      9.4683      0.8161      8.9404
C      2.5083      1.5302      3.3271
C      0.3746      2.7966      7.3744
C      9.9653     -2.9782      6.7567
C     -2.5401      3.1818      4.5022
C     17.7868     12.1604     18.4981
C      2.8225      3.2941      9.9017
C     11.7910     -5.1592      1.6584
C      3.8802     -0.7381      8.0727
N      1.5882      0.4161      3.8298
H      2.0877      1.2108      0.4978
C      3.0442      1.3424     -0.0318
O     17.1161      6.5240     15.3842
C      9.2281      6.7372      1.0456
H     18.1567      9.4026     19.0359
C     -1.9914      4.3060      2.0118
C     10.3651     -5.8049      9.4310
H      7.8656      4.9769      0.2148
H      8.7677      8.0064      7.7955
C     10.5666     -3.0270      0.8459
H      5.0659      9.1801      8.7519
H     15.4477     -5.5455      9.0692
H     -3.1624      5.4972      5.4478
H     11.9093     -3.3542      4.5467
H     14.5116      9.6564     11.6689
H      3.6345      0.3997     -0.2769
H     -1.2374      2.9417      9.1588
C     15.0693      7.7481     15.2697
H      5.0136      5.8643     10.0419
C     14.2447      8.4802     11.2773
C      6.1451     10.7542     10.6126
H      2.6251      2.6495     10.8278
H     17.3463     11.7494     15.7337
C      4.0841      8.6426      4.4150
C      7.2802      7.4204      2.8945
C     20.8270     10.0613     14.6109
C     18.6394      8.6685     14.7993
C      4.1463      6.4185      6.5815
C      1.8226      4.7772      2.5775
C      5.9070      6.0899      0.1349
C      5.5429      7.8810      4.4117
C      7.7141      7.2633      1.3751
C      4.3027      5.2358      7.6079
C     14.3227     -8.1187      1.0480
C      6.0864      7.4136      5.5847
H      9.5527      5.7867      0.7661
C      7.2144      5.8974      1.0363
H     -0.0014      3.3528      2.9847
H     11.3937     -6.0255      9.5158
O      7.2689      7.1609      5.7100
H      8.4604      9.5055     11.8138
H      2.1219      2.3457      2.8757
H     12.3992     -3.4618      2.4543
H      4.1664      5.4296      0.7257
H      4.7761      5.9323      4.4956
C     12.1516      7.3839     11.5144
C     15.9236      6.3734     15.7288
H     14.0354     -6.8363      9.1831
C     -1.6369      4.2518      4.3943
C      0.3805      6.6644      5.3764
H      4.8293      9.0179     10.5630
H      3.0792     -0.2219      5.1435
C      1.4819      5.7406      4.7163
H      3.1795      0.1357      1.5044
H     12.8541     -5.2208      8.5523
C      8.2236     -6.9552      9.3993
C      4.2332      0.7987      8.2045
O      6.1842      4.2056      5.6090
C      5.9899      7.8514      3.1148
C      9.1545     -3.6482      5.7461
C     12.8541     -6.6034      2.8158
C     -1.3657      6.4355      3.6318
H     16.3622      8.4232     21.1241
H     15.3720      8.2122     11.5739
H     -2.8582      2.5711      3.4999
C      1.7803      0.1998      8.7785
C      0.7057      5.1571      3.4593
C      5.4578      3.8145      2.5952
H     13.8572     -8.2223      7.4114
H      8.8933      9.2243      8.9464
H     10.6004     -1.3488      8.0357
H     14.9265     10.3269     15.6751
H      7.2002     -2.2727      6.3574
C     15.0278     -6.4939      8.7029
C     -2.0587      5.2179      5.5263
C      3.6286      0.9359      2.3499
C      1.5458      4.5606      5.4342
C     14.7388     -6.4683      7.2199
C     15.2829     -9.1105      0.3390
H     11.9907     -7.3754      0.8871
H      4.9057      1.8177      0.4855
H      2.8963      1.7750     -0.9245
H     10.8968     -3.2475      6.1773
H      5.3488      1.2423      4.4364
C     12.3198     -4.1701      5.2803
C      9.0646     -6.0831     10.1294
H     17.2901      7.7044     14.8978
H     21.5218     10.3768     13.7294
C      8.4942     -1.3222      7.9475
H      9.8179      6.8491      2.0304
H      8.6628     -2.8591      4.8842
H      5.3697      1.7948      9.4486
C     12.5447     -5.6212      7.7137
C      0.4925      3.4143      5.1676
O      8.7934      5.5094      4.1754
C     11.1345     -5.0263      5.6586
C      6.2204      2.3666      7.4906
C      5.2104      2.2631      6.5644
C      2.9231      0.9373      5.5161
H      6.8059      7.3305      7.8605
H      5.9936      3.7646      7.6245
H      8.3102      9.3949      7.4937
H     12.8092     -3.9573      7.3198
C     14.8326     -7.9566      6.9564
C      3.9768      5.5996      5.0479
C      2.8295      2.4429      8.8976
H     20.0425     10.7653     15.0878
C      8.2943      7.1676     11.2677
H      4.1595      5.8498      8.8141
H     10.8618      5.9819     11.5562
H      7.2079      2.3739      7.1899
C      3.9648      3.0978      4.7294
C     17.1457      9.6864     18.4465
C      6.9415      0.3116      9.0747
C      8.2234      8.7416      8.2620
C      5.7406      4.9369      8.1179
C      5.8468      1.1614      8.7191
H      0.1526      3.7942      8.9588
H     10.3396     -4.7261      9.3255
H      9.9562     -1.1536      6.4880
H     19.1191     10.0867     13.2557
H      8.5565      6.0847     11.3556
C     14.5650     10.3374     13.7104
H      2.2699      4.1221      9.8222
H      9.2612     -3.9499      2.8740
