265

C     19.4867      9.1954     13.7685
C      4.0881      1.6526      7.1070
C      2.9246      3.4404      1.1146
C      7.0810      5.0013      2.7491
H     -2.6508      3.2244      2.4592
C      7.5275      3.5207      3.3903
C      3.3849      4.2436      5.7009
C      6.7307      9.3677     10.5635
C     15.8708      7.2133     19.5710
C      5.9194      1.7148      4.0987
C      6.6780      8.0467     10.0622
C     13.7794      8.7884     13.6471
N     -0.1254      3.0144      5.9746
C     13.4144     -6.8509      0.5768
C      3.2683      4.1434      7.1583
H     13.7266     -7.0523     -0.3742
C     15.6895      6.2140     17.4555
C     16.9988     10.7124     16.4590
H      1.2533      0.6497      8.8999
H     -2.0243      2.7355      5.2708
H      6.1178      4.8154      3.2233
H      5.6036     10.2520     11.5987
C     16.6428      9.2911     16.1838
H      7.9326      9.8031     10.4417
H      7.4859      3.8705      4.4416
H     12.6532      6.9850     10.9738
H     -1.3544      5.1232      6.4876
C      3.1029      2.7957      7.7332
H      9.3142     -2.7577      0.3897
H      7.0696      1.9320      4.6966
O     14.7780     10.8246     14.7401
C      8.4244      0.2973      7.7777
H     15.9018     -7.7726     -0.5659
C      6.7240      5.8966      9.8682
H     14.8245     -7.0564      9.5701
C      6.3358      2.6632      2.9726
H      6.1576      5.3196      7.6271
H      7.0227      9.3958     11.6619
H      5.1767     -2.5675      8.1724
H      5.0487      7.4055      8.5688
C     17.3265     10.8991     17.7008
C     10.0408     -4.7215      5.0918
O     14.7611     -4.6276      5.0246
C     11.1362     -5.8628      7.0673
C      8.6018      7.9575     12.4975
C     20.2335      7.8801     13.2704
C      6.2494      7.2590     -0.5057
H      5.3063      3.6343      1.2648
H     17.1570      9.9535     14.0317
H      2.2104     -0.3754      2.8348
H      8.1393     -7.2337      8.2111
C      6.9413      7.0346     10.9556
C      7.7585      6.0908      3.3485
H     21.4826      9.5897     14.7743
C     -1.2666      6.4481      4.8803
H     14.7059      9.0298     20.0835
H      4.6163      1.1752      2.4130
H      6.6424     11.4523     10.7627
H      4.0669      7.2395      0.0935
C      9.9706     -1.3735      6.9048
C      5.7127      5.2267      9.5610
C     15.8708      7.5570     17.9226
C      4.3852      6.3630      0.5653
C     17.2205      9.4341     14.8691
H      9.5368     -5.7457      5.5480
H      8.5077      7.9599      3.0120
H      3.3358      0.6776     10.3140
H      7.5545      0.5641      9.8104
H     18.6471     12.5995     17.7893
C     -0.4161      3.5258      8.5885
C     13.2031      8.3523     12.2903
C      1.7758      2.5163      7.1956
C     12.4070     -6.3478      1.3599
H      5.4077      8.0900     -0.9954
H     -3.4672      2.8156      4.5525
H      6.2983      4.3798      6.2329
H      5.1851     10.8258     10.0685
C      9.9431      7.5652     12.9128
O     14.9360     10.8467     12.6138
C      7.3149      8.0974      8.4416
C     15.6995      8.6801     20.2173
C      3.4264      1.1006      9.4157
C      3.4694      1.9626      4.5837
H      9.8815     -2.1453      1.9150
H     18.7308     11.3186     19.0440
C      4.0404      3.9521      3.3452
H      8.6547     -3.1406      6.2355
C     10.6684     -4.3507      0.9088
C     10.8945      7.0826     11.9576
H     10.7135     -3.2744      7.4090
C      5.5334      2.7708      5.0931
H     14.2697     11.0489     11.9245
H     17.6167     12.4222     19.3740
H      8.3445      3.0360      3.0643
H      8.3046      1.1473      7.1775
C      2.7492     -0.5950      7.8642
C      5.2827     -1.5585      8.3080
C     -2.1636      5.0553      3.4005
C     16.3852      9.7134     19.4714
C      2.9392      3.9504      2.3064
C      5.2112      7.7710      9.8012
H      2.1376     -0.9903      7.0012
H     16.0590      8.5547     13.6908
H     -3.6011      4.7327      1.8257
H     14.3297     -8.9506     -0.3017
O      5.1652      7.4422      6.6152
C     13.4977     -5.0658      4.7272
H     16.7071     10.3325     20.2655
C     10.2621     -4.5007      3.5346
C     10.9969     -5.3922      2.8643
H      6.3042      8.2144      7.9770
C     10.1165     -5.5301      7.9872
H      0.8513      2.3274      4.5819
H     14.6196      7.5300     10.8092
H      6.6187      2.0205      1.9392
H     -1.4860      3.2171      8.5586
C      3.5863      2.2518      0.8986
C     12.9882     -4.0341      2.1627
C     -0.2474      3.9833      3.9005
C      7.5760     -1.7502      7.4928
H      1.3389      0.0889      4.1743
H      9.0700     -5.5306      7.6920
H     15.4358     10.4847     18.8563
H     14.3879      7.3199     13.0783
O     13.1804     -3.5008      6.5577
C      6.6307     -0.9885      8.2486
C     13.3878     -6.2375      6.8810
C     15.0352      8.0062     13.9966
C     13.6225     -5.1676      3.1564
H      9.2980      0.6898      8.2427
C      2.5891      1.6349      3.4165
C      0.4001      3.2208      7.2360
C     10.5876     -2.6433      6.4728
C     -2.3316      2.9001      4.3830
C     18.0519     12.0127     18.3819
C      3.1097      3.3591     10.0568
C     11.7686     -4.8646      1.8041
C      4.4397     -0.6171      7.7750
N      1.7730      0.4504      3.2403
H      2.0363      1.1997      0.0541
C      3.1311      1.2793     -0.1054
O     17.2953      6.2779     15.6822
C      9.1898      6.3230      1.1471
H     18.5006      9.5823     18.9313
H      2.1829      1.4499      7.8809
C     -2.5661      4.3035      2.2479
C     10.0310     -5.5394      9.4905
H      2.1449      1.8430      6.2389
H      7.2593      4.5244      0.5136
H      9.1594      8.9253      7.9754
C     10.0401     -3.0394      1.1419
H      4.9649      8.7930      9.4157
H     15.9713     -5.8519      9.0097
H     -2.7830      5.2374      5.6029
H     12.1935     -3.5122      4.4054
H     14.4350      9.2630     10.5447
H      3.6216      0.2813      0.3219
H     -0.5059      4.6393      8.4845
C     14.9423      7.5362     15.3341
H      4.8322      5.3477     10.2078
C     14.3862      8.4261     11.3217
C      6.1660     10.6143     10.7837
H      3.2495      3.1869     11.0141
H     16.8407     11.2800     15.5722
C      4.2100      8.5104      4.4534
C      7.6727      7.4169      2.7942
C     20.5125     10.0584     14.3434
C     18.5308      8.9107     14.9337
C      4.0472      6.2714      6.6612
C      1.8753      5.0306      2.4266
C      5.7592      6.2329      0.3631
C      5.5098      7.7194      4.2321
C      7.7700      6.7973      1.4098
C      4.1643      5.1639      7.6268
C     14.4648     -7.6852      1.0611
H      8.6163      4.8093      4.6886
C      6.0379      7.1700      5.4191
H      9.0754      5.3962      0.6275
C      6.9200      5.3857      1.2255
H     -0.4048      3.2807      3.0470
H     11.1155     -5.9987      9.6907
O      7.3192      7.2215      5.8108
H      9.0135      8.6085     11.9332
H      2.2379      2.8388      3.0888
H     12.9403     -2.9510      2.4715
H      3.7778      5.5897      0.8255
H      4.9367      5.5010      4.8082
C     12.2133      7.5398     11.7943
C     15.5626      6.2981     15.8907
H     14.0801     -5.4856      9.0776
C     -1.5787      4.2256      4.3982
C      0.1900      6.5266      5.2839
H      4.6332      6.8926     10.1873
H      2.6761      0.2435      5.9526
C      1.3847      5.6720      4.7529
H      3.1448      0.3218      1.7714
H     12.4853     -6.2320      8.8166
C      8.0686     -6.9578      9.2504
C      4.4819      0.8170      8.4274
O      6.4764      3.8964      5.4426
C      6.4261      8.1266      3.0270
C      9.6242     -3.3799      5.6749
C     13.0341     -6.5465      2.7457
C     -1.4979      6.2423      3.5484
H     16.0046      8.8602     21.2762
H     15.2687      8.6976     11.6442
H     -2.1202      2.2336      3.5898
C      2.2730      0.2975      8.6866
C      0.6943      5.0612      3.4688
C      5.2589      3.5627      2.5509
H     14.2137     -8.5083      8.1388
H      8.1631      9.9332      8.9151
H     10.9497     -0.7426      6.8525
H     15.3201     10.3617     15.5244
H      6.8673     -2.0571      6.7370
C     14.8448     -6.2594      8.7678
C     -1.6315      5.0666      5.4585
C      3.5217      1.3539      2.1533
C      1.8176      4.3595      5.5354
C     14.8311     -6.6361      7.3527
C     15.1297     -8.5681      0.1565
H     11.4639     -6.9417      1.2830
H      4.7863      2.4438      0.6309
H      2.8339      1.8279     -0.9785
H     11.6037     -2.4237      6.0901
H      4.7271      1.3446      4.0770
C     12.6448     -4.1876      5.3696
C      8.9627     -6.1841      9.9910
H     17.4404      6.8714     14.8954
H     20.7526     11.1757     13.6618
C      8.7298     -1.0694      7.3556
H      9.4537      6.4226      2.1210
H      9.1768     -2.7656      4.8395
C     12.3734     -5.8983      7.7501
C      0.7236      3.2288      4.9369
O      8.6896      5.7430      4.1426
C     11.3406     -5.1780      5.6925
C      6.3863      2.1856      7.5028
C      5.4598      2.2856      6.4870
C      3.3541      1.1438      5.8716
H      7.1349      7.1783      7.8889
H      5.8089      3.8964      8.0080
H      7.7028      9.0573      7.0043
H     12.8616     -2.5177      6.7304
C     14.8054     -8.0432      7.1209
C      3.9690      5.5206      5.3509
C      3.1329      2.5247      9.1297
H     20.0919     10.6647     15.1364
C      8.3521      6.8694     11.3497
H      3.7231      5.3419      8.5460
H     10.5441      6.5025     11.2334
H      7.2998      2.7988      7.4077
C      4.2278      3.3217      4.6973
C     17.4070      9.5320     18.3286
C      7.0535      0.2866      8.8426
C      8.2827      9.1596      8.0693
C      5.4855      4.8324      8.2365
C      5.9508      1.4604      8.6100
H      0.1954      3.2104      9.5117
H     10.0540     -4.3754      9.6897
H     18.7637      9.6736     13.0340
H      8.3092      6.0283     11.7835
C     14.3353     10.1989     13.6870
H      2.6222      4.3231      9.9686
H      9.3823     -3.9956      3.1817
