259

C     19.3961      9.2513     13.9631
C      3.9246      1.5141      7.0444
C      3.3057      3.3930      1.3095
C      7.2946      4.9186      2.4732
H     -1.7984      3.2928      2.4051
C      7.6763      3.6576      3.1533
C      3.1661      4.2560      5.5057
C      6.8115      9.6524     10.6953
C     15.8456      7.1924     19.4441
C      6.1120      2.0537      4.1846
C      6.5410      8.3831      9.9952
C     13.6346      8.8561     13.7478
N     -0.2281      3.3350      6.1978
C     13.5904     -6.8786      0.5808
C      3.2199      4.1638      6.9634
H     13.9621     -7.1112     -0.5921
C     15.7630      6.2884     17.3996
C     16.9259     10.8310     16.4801
H      1.4382     -0.5788      9.2587
H     -2.2659      2.4460      5.4246
H      5.6551      4.7608      2.4909
H      6.6719     11.7625     10.4034
C     16.9669      9.3755     16.0521
H      7.7792      9.7595     10.4129
H      7.6645      3.6127      4.1626
H     -1.9247      5.2939      6.7948
C      2.8993      2.6894      7.3823
H     10.0826     -2.6310     -0.2168
H      6.8735      1.1770      4.2071
O     15.1510     10.3603     14.8428
C      8.4297      0.3547      8.5189
C      6.8183      6.1145      9.9478
H     15.3099     -7.1636      9.0095
C      6.4547      2.7453      2.9644
H      6.2113      5.8024      8.1953
H      6.6288      9.4614     11.7626
H      4.7556     -2.7164      8.3989
H      4.5969      7.7020     10.4469
C     17.2583     11.0880     17.9236
C      9.9129     -4.6783      5.1840
O     14.8505     -4.3744      4.9639
C     11.1705     -5.3981      7.1291
C      8.5215      8.1708     12.0760
C     19.9845      8.3917     12.9274
C      5.9709      7.6130     -0.8634
H      5.4205      3.6194      1.3775
H     17.1221      9.6355     14.2902
H      1.4779      0.9011      4.6756
H      8.2663     -7.1188      8.0950
C      6.8932      7.2802     10.8539
C      7.7262      5.9029      3.4094
H     21.0904      9.0693     15.3974
C     -1.3440      6.6499      4.9759
H     15.2079      8.7001     20.7018
H      4.2190      0.3080      2.8579
H      5.4054     11.1519      9.5988
H      3.9975      7.3012      0.1899
C      9.9663     -1.4561      7.5385
C      5.6480      5.2858      9.7571
C     16.0061      7.6941     17.9462
C      4.4023      6.2696      0.3320
C     17.4259      8.8510     14.7700
H      9.2158     -5.5390      5.8151
H      8.4390      7.7817      3.2839
H      3.4754      0.7266     10.0511
H      6.4414      0.1557     10.0970
H     17.8557     13.1680     17.7037
C     -0.3150      2.5431      8.5974
C     12.9472      8.5134     12.2916
C      1.6133      2.0658      6.9907
C     12.4507     -6.1748      1.2791
H      5.0911      8.2973     -0.8259
H     -3.3688      3.5196      4.7380
H      5.6080      4.6338      4.8655
H      5.4433     11.0211     11.2576
C      9.6675      7.6055     12.8474
O     14.7453     10.8484     12.8145
C      7.1153      8.1094      8.6140
C     16.0673      8.3460     20.2442
C      3.0564      1.0062      9.1347
C      3.3804      1.6921      4.5673
H     11.2299     -2.7278      0.8397
H     19.2005     11.6862     18.1568
C      4.1846      3.8281      3.4509
H      8.2847     -3.7456      5.8980
C     10.7125     -4.6032      0.6856
C     10.8404      6.8752     11.8398
H     10.7386     -4.1206      7.4000
C      5.1562      2.5537      5.3094
H     17.7918     12.6293     19.4600
H      8.4939      3.2497      2.8739
H      8.7285      0.6994      7.6436
C      2.7420     -1.0521      8.1908
C      5.0467     -1.6628      8.4007
C     -2.1037      5.2370      3.1627
C     16.1297      9.6611     19.6174
C      3.2211      4.0267      2.5049
C      4.9735      8.6183      9.9168
H      2.3577     -1.9746      7.7529
H     15.7945      8.4048     13.7008
H     -1.7178      4.9637      1.1182
H     15.2075     -9.2078     -0.7405
O      5.4637      7.3239      6.6784
C     13.4104     -4.8848      4.5709
H     16.4491     10.1521     20.5520
C      9.7342     -4.6835      3.5550
C     10.8409     -5.2825      2.8380
H      6.5173      8.8176      7.9900
C     10.0689     -5.7235      7.9572
H      1.1889      2.5238      4.4508
H     14.3043      8.2465     10.5092
H      6.9455      2.0061      2.1797
H     -0.0634      1.4149      8.7966
C      3.7725      2.1268      1.0737
C     12.8553     -4.0090      2.1484
C     -0.1935      4.1308      3.7256
C      7.3811     -1.6265      7.6647
H      0.5493      0.2223      3.3714
H      9.1485     -6.2619      7.4912
H     14.9521     10.0708     19.0462
O     13.2212     -3.3106      6.0499
C      6.3469     -0.8471      8.1944
C     13.4513     -6.0267      6.8959
C     14.9127      7.9039     14.0327
H     15.5267      8.7243     15.7864
C     13.5941     -5.0683      3.0468
H      9.0158      0.9415      9.2379
C      2.6308      1.4447      3.1791
C      0.2731      2.7579      7.2020
C     10.2335     -2.9912      6.9210
C     -2.4676      3.1678      4.5034
C     18.0574     12.2269     18.3889
C      2.9245      3.3152      9.8359
C     11.6521     -4.8727      1.7369
C      4.0961     -0.7235      8.2201
N      1.4909      0.5015      3.6653
H      1.8828      1.3675      0.0064
C      2.9781      1.4747     -0.0002
O     17.1403      6.5567     15.4817
C      9.2339      6.5771      0.8754
H     18.4795      9.7252     18.7603
H      1.1751      1.2311      8.0004
C     -1.9779      4.4215      1.9260
C     10.2748     -5.6320      9.3836
H      1.5888      1.5912      5.9566
H      7.6640      5.2840      0.0145
H      8.4541      8.5318      7.4191
C     10.3595     -3.3141      0.6261
H      4.9333      8.5216      8.9064
H     15.6480     -5.7021      9.1630
H     -3.0407      5.4330      5.6055
H     12.3461     -3.7036      4.2564
H     14.2479      9.5666     11.5078
H      3.4545      0.6127     -0.6199
H     -1.5042      2.8231      8.6499
C     15.0918      7.7469     15.5094
H      4.7354      5.4013     10.1891
C     14.3670      8.5610     11.5167
C      6.1337     10.9141     10.5220
H      2.9065      2.8795     10.9088
H     16.4029     11.7605     16.1248
C      4.0428      8.6915      4.5332
C      7.4855      7.1876      2.9628
C     20.7540      9.6971     14.5571
C     18.7202      8.3939     14.8313
C      4.2054      6.2740      6.4434
C      1.7852      4.9340      2.4368
C      5.7404      6.2364      0.0583
C      5.3449      7.8683      4.3904
C      7.7675      7.0551      1.2820
C      4.3251      5.2593      7.4867
C     14.3708     -8.0228      0.9719
H      8.4267      4.3547      4.0863
C      6.2085      7.6527      5.6058
H      8.9029      5.7010      0.6234
C      6.9675      5.7015      0.8974
H     11.3766     -5.9935      9.8459
O      7.4386      7.0739      5.7900
H      9.2314      8.6266     11.1363
H     12.8753     -3.3176      2.9146
H      3.6462      5.7506      0.6520
H      4.6993      5.4983      4.6477
C     12.2499      7.1078     11.9833
C     15.9035      6.3597     15.8890
H     14.0623     -6.2752      9.3067
C     -1.6197      4.4591      4.4210
C      0.2258      6.7229      5.3892
H      4.8788      9.6650      9.9991
H      2.3070      0.1887      5.6289
C      1.3877      5.8627      4.6638
H      2.9491      0.2023      1.5768
H     12.6314     -5.6745      8.8409
C      8.1238     -6.9573      9.2431
C      4.2307      0.6309      8.2414
O      6.0866      4.0304      5.6903
C      6.0709      7.8865      3.1888
C      9.3888     -3.4768      5.7058
C     12.7535     -6.4026      2.6536
C     -1.4836      6.6010      3.5538
H     16.9361      8.0978     20.8844
H     15.3119      8.2564     11.8930
H     -2.4087      2.5868      3.5362
C      2.0552      0.0222      8.6517
C      0.6778      5.5282      3.2343
C      5.3782      3.7348      2.4019
H      9.2007      9.0320      9.2220
H     10.6630     -0.9307      7.8273
H      7.3596     -2.2918      6.7824
C     15.0095     -6.3062      8.6496
C     -1.9205      5.5455      5.6500
C      3.6232      0.9243      2.1676
C      1.6673      4.5844      5.4391
C     14.8173     -6.5596      7.1301
C     15.2983     -8.8645      0.2577
H     11.5546     -6.4284      0.9554
H      4.9946      1.9574      0.5658
H      3.2202      2.2333     -0.6969
H     11.1587     -2.5995      6.6734
H      5.2006      1.4101      3.9825
C     12.4034     -4.0436      5.1609
C      8.9944     -6.2549      9.9482
H     16.9160      7.8313     14.7020
H     21.5732     10.3279     13.8098
C      8.5479     -1.1135      8.1396
H      9.7566      6.7484      1.9737
H      9.1851     -2.5964      5.1430
H      5.1492      1.9050      9.5896
C     12.4432     -5.5686      7.8152
C      0.6834      3.4725      4.7223
O      8.6227      5.4880      4.3942
C     11.3504     -5.0018      5.7487
C      6.2030      2.0861      7.6145
C      5.1878      2.0408      6.6284
C      3.0433      0.9713      5.6479
H      7.3028      7.1915      8.1049
H      5.5992      3.8104      7.9787
H      8.2280      9.8778      8.1651
H     13.1619     -3.8617      6.8080
C     14.7640     -8.1081      6.9231
C      3.8546      5.5998      5.1753
C      2.8406      2.5168      8.8031
H     20.8623     10.5383     15.0727
C      8.3664      7.0939     11.0995
H      3.6817      5.8712      8.0917
H     10.2870      5.9619     11.5368
H      7.2169      1.8482      7.3702
C      3.9279      3.2101      4.7439
C     17.2705      9.9147     18.6621
C      6.8199      0.4238      9.0443
C      8.3338      8.9172      8.4963
C      5.6544      4.8623      8.2121
C      5.6886      1.3507      8.7488
H     -0.2160      3.4343      9.3992
H     10.1144     -0.8334      6.4904
H     18.9054     10.2405     13.8763
H      8.1187      6.3990     11.6130
C     14.5510     10.1432     13.7313
H      3.1619      4.3390      9.8086
H      9.3509     -3.6162      3.0171
259

C     19.5852      9.2256     13.8437
C      3.8341      1.4477      6.9992
C      3.2990      3.4193      1.3814
C      7.3864      5.1409      2.2580
H     -2.7928      3.5370      2.1214
C      7.9118      3.6590      2.8152
C      3.2917      4.3970      5.4167
C      7.0525      9.8166     10.5773
C     15.8653      7.1816     19.3497
C      6.0624      1.9223      4.3458
C      6.3698      8.5122      9.8969
C     13.8184      8.8969     13.7567
N     -0.2160      3.5064      6.3417
C     13.7359     -6.9739      0.5134
C      3.2785      4.1646      6.9450
H     13.7554     -6.6724     -0.7250
C     15.6727      6.3414     17.2437
C     16.9108     10.8827     16.4046
H      0.9773      0.0021      9.4192
H     -2.1070      2.4632      5.3937
H      6.1125      4.7765      2.5696
H      6.4938     11.9740     10.3400
C     16.7060      9.4812     16.0415
H      8.3173      9.6780     10.3669
H      7.9693      3.8249      3.8731
H     12.2644      6.1431     11.5415
H     -1.5117      5.0702      6.3541
C      2.8672      2.7139      7.5568
H      9.9119     -2.5061      0.0133
H      6.7631      1.0975      4.6363
O     15.1249     10.6416     15.0346
C      8.4157      0.4077      8.4168
C      6.7984      5.9968      9.8817
H     15.4285     -7.2031      9.3764
C      6.4231      2.6854      2.7977
H      6.3444      5.4142      7.7554
H      6.8927      9.3070     11.6450
H      5.1229     -2.5492      7.9748
H      4.5888      8.0283     10.1292
C     17.3838     10.8780     17.6836
C      9.9338     -4.8656      5.0470
O     14.7189     -4.2967      4.9204
C     11.0895     -5.3165      7.0995
C      8.6241      8.1865     12.2635
C     20.2138      8.1517     13.1006
C      6.2037      7.3979     -0.7573
H      5.2414      3.7684      1.3856
H     16.9357      9.5612     13.9903
H      0.8090      0.7763      4.4776
H      8.5322     -7.5893      8.4029
C      6.8326      7.1872     10.8242
C      7.7371      5.9565      3.3054
H     21.0931      9.0277     14.8140
C     -1.1045      6.5443      5.0020
H     14.7042      8.6523     20.3817
H      4.5653      0.5256      2.6950
H      5.7978     10.3219      9.7524
H      4.1752      7.2884      0.1088
C      9.8535     -1.6815      7.4691
C      5.6950      5.4066      9.4658
C     15.7367      7.5999     17.9775
C      4.5339      6.2370      0.1009
C     17.2474      8.7916     14.8159
H      9.0381     -5.4317      5.1805
H      8.3065      8.1283      2.9537
H      3.1814      1.0316     10.1726
H      7.4622      0.0778     10.0785
H     17.7234     13.0661     18.2648
C     -0.1691      2.6113      8.4966
C     13.0325      8.3659     12.1152
C      1.5944      2.0789      7.2461
C     12.5834     -6.5034      1.4471
H      5.1876      7.6267     -1.0045
H     -3.4544      3.4142      4.2666
H      6.3103      4.4394      4.7013
H      5.6661     11.1126     11.4698
C      9.9347      7.4737     13.0007
O     14.6590     10.8247     12.7774
C      6.9136      8.1249      8.3591
C     15.8092      8.4963     20.1647
C      2.9934      0.8796      9.1273
C      3.3155      1.7151      4.5978
H     11.7390     -2.6750      0.7475
H     19.0960     12.3910     18.3641
C      4.1061      3.7026      3.4067
H      8.1427     -3.8377      5.9155
C     10.7680     -4.4282      0.7172
C     10.8663      6.8674     11.9820
H      9.7228     -3.7255      8.0326
C      5.4481      2.8996      5.3692
H     17.5997     12.0518     19.6074
H      8.8120      3.6075      2.3952
H      8.0902      0.6530      7.4955
C      2.5938     -1.1364      8.2637
C      5.0450     -1.5049      8.3212
C     -2.0120      5.1718      3.2064
C     16.0268      9.8477     19.4438
C      2.9108      4.0817      2.5919
C      5.0146      8.9079      9.6205
H      1.8038     -1.9306      7.6161
H     15.7593      7.9958     13.6166
H     -1.8562      4.7457      1.0733
H     15.2375     -9.4505     -0.3958
O      5.4468      7.2489      6.7622
C     13.5643     -4.9090      4.5669
H     16.3331     10.2823     20.3863
C     10.0522     -4.6612      3.5393
C     10.8278     -5.3287      2.7815
H      6.3910      8.6365      7.5239
C      9.9828     -5.6582      7.9886
H      0.9211      2.7268      4.7420
H     14.7168      7.8915     10.7003
H      6.6332      1.6610      2.2639
H      0.3051      1.7618      8.7915
C      4.0167      1.8317      1.0617
C     12.8122     -4.2608      2.1900
C     -0.2040      4.3346      4.0959
C      7.4269     -1.5521      7.4734
H      0.5630      0.2076      3.0157
H      8.9858     -5.7516      7.4235
H     15.0702     10.0845     19.0100
O     13.2934     -3.2357      6.3366
C      6.4707     -0.8984      8.2596
C     13.4526     -5.9013      6.7179
C     14.8592      7.8729     14.0994
H     15.5499      8.6424     16.1264
C     13.4809     -5.1296      3.0852
H      9.4762      0.4505      9.0883
C      2.5112      1.6263      3.3382
C      0.3852      2.8162      7.2007
C      9.9237     -3.1945      6.8377
C     -2.5563      3.1608      4.4821
C     17.9135     12.0387     18.3613
C      2.7998      3.3013      9.8939
C     11.7592     -5.1668      1.6122
C      4.0108     -0.6258      7.9168
N      1.4941      0.4715      3.7482
H      2.0470      0.9283      0.4619
C      2.9622      1.3086      0.0500
O     17.0511      6.4067     15.4322
C      9.0693      6.6656      0.9523
H     17.9989      9.8012     19.3955
H      1.3119      1.1268      7.6558
C     -1.9332      4.4234      2.1079
C     10.3604     -5.7351      9.4343
H      1.2444      1.5219      6.2353
H      7.6782      5.0846      0.4361
H      8.8580      8.2586      7.8133
C     10.7067     -3.1216      0.7085
H      4.2956      8.6293      8.7478
H     15.1437     -5.5131      9.1820
H     -2.9980      5.6108      5.5439
H     11.8179     -3.2654      4.5799
H     14.4922      9.4684     11.4693
H      3.3582      0.5475     -0.8086
H     -1.3016      2.7038      8.6670
C     15.0693      7.6825     15.5102
H      4.9380      5.8738      9.9162
C     14.3385      8.3496     11.4871
C      6.1244     11.0286     10.5502
H      3.1674      2.6511     10.7281
H     16.5183     11.7578     15.8295
C      4.1063      8.6301      4.6027
C      7.4591      7.2949      2.7938
C     20.7966     10.0972     14.5301
C     18.7595      8.6691     14.9689
C      4.2757      6.3823      6.5364
C      1.6609      4.7515      2.4166
C      5.8835      6.1213      0.0254
C      5.4286      7.7978      4.3417
C      7.6256      7.1711      1.2149
C      4.2440      5.3822      7.7075
C     14.5016     -8.1148      1.1035
C      6.1832      7.3560      5.5767
H      9.2672      5.7089      0.5180
C      7.0434      5.7268      0.8746
H     11.5273     -6.0025     10.0080
O      7.4136      7.2189      5.7097
H      8.7587      9.3312     11.7711
H     12.4371     -3.3577      2.5192
H      3.9094      5.6436      0.5569
H      4.9222      5.7614      4.4015
C     12.1262      7.1801     11.8691
C     15.9306      6.6496     15.8647
H     14.0852     -6.7960      9.1053
C     -1.6512      4.4367      4.4278
C      0.3107      6.7855      5.3238
H      4.6772      9.3678     10.5531
H      2.8885     -0.1038      5.5056
C      1.4105      5.8600      4.7497
H      2.9353      0.1664      2.0348
H     12.9476     -5.8094      8.6599
C      8.2155     -6.7811      9.2793
C      4.2027      0.7178      8.2139
O      6.1328      4.0599      5.5891
C      6.1061      7.6622      3.1074
C      9.1591     -3.5995      5.7557
C     12.7723     -6.5273      2.8725
C     -1.4336      6.5107      3.4430
H     16.6260      8.3417     20.8690
H     15.1637      8.1541     12.3136
H     -2.4526      2.3934      3.5704
C      1.9250      0.0262      8.8597
C      0.8147      5.4656      3.5064
C      5.4400      3.7763      2.3870
H      8.5235      8.6743      9.5384
H     10.5829     -1.2779      8.0596
H     14.4220     10.1915     15.4833
H      7.4369     -2.0526      6.4605
C     15.1371     -6.4297      8.6503
C     -1.8478      5.4359      5.4098
C      3.7241      0.9551      2.2349
C      1.6266      4.4747      5.4937
C     14.7801     -6.5455      7.2645
C     15.4147     -9.0818      0.4679
H     11.7174     -7.0669      1.1812
H      5.0851      1.9862      0.6394
H      2.7458      2.2169     -0.4280
H     10.9786     -3.2646      6.5691
H      5.4526      1.3407      3.7260
C     12.3504     -4.0675      5.1769
C      9.0656     -6.0890     10.0001
H     17.0374      7.8792     14.3310
H     21.5680     10.6049     13.8017
C      8.7193     -1.1763      8.0790
H      9.7239      7.0323      1.7335
H      9.2859     -2.5327      5.3156
H      5.4930      1.2650     10.1781
C     12.4702     -5.4153      7.6212
C      0.5201      3.6450      5.0923
O      8.5863      5.6330      4.0922
C     11.1445     -5.0186      5.6679
C      6.1366      2.1772      7.5912
C      5.1143      2.1527      6.6435
C      3.1063      0.9353      5.7131
H      7.1425      7.1445      8.0529
H      5.7513      3.7843      7.8805
H      8.0852      9.8638      7.6769
H     12.9144     -3.7291      6.9854
C     14.8942     -8.1264      6.8598
C      4.0492      5.6040      4.9254
C      2.9430      2.3846      8.9299
H     20.3643     10.8387     15.0272
C      8.2455      7.1807     11.2134
H      3.9291      5.9355      8.4922
H     10.4207      5.6933     11.6512
H      7.1829      2.1864      7.2496
C      3.9187      3.2395      4.8373
C     17.1261      9.7596     18.5569
C      6.9368      0.1864      9.1689
C      8.2067      8.9378      8.2699
C      5.5399      4.8358      8.2420
C      5.6579      1.2829      8.8508
H      0.3511      3.4879      9.0300
H     18.9745     10.0208     13.5298
H      8.1730      6.5262     11.9706
C     14.5785     10.0633     13.8839
H      2.8049      4.4556      9.8351
H      9.2844     -3.7200      3.3995
259

C     19.5502      9.3420     14.0101
C      3.7636      1.4731      7.1145
C      3.3231      3.3644      1.2422
C      7.3035      5.1310      2.4163
H     -2.2473      3.3704      2.2918
C      7.7750      3.6543      2.7577
C      3.1922      4.2724      5.4291
C      7.0627      9.4959     10.7671
C     15.8487      7.4165     19.4340
C      6.1347      1.9241      4.3855
C      6.5587      8.4490      9.6990
C     13.9356      8.8954     13.6928
N     -0.2193      3.4650      6.3616
C     13.6677     -6.8160      0.6401
C      3.1980      4.0728      6.9570
H     13.6667     -6.6534     -0.2938
C     15.7063      6.2891     17.3017
C     16.9066     10.9445     16.4091
H      0.7949     -0.0536      8.8926
H     -2.3245      2.5198      5.5004
H      6.5586     11.8571     10.4170
C     16.8092      9.4986     16.1054
H      8.1533      9.8490     10.2589
H      8.2905      3.7910      3.7090
H     12.8037      6.8283     10.6537
H     -1.5327      4.8590      6.4552
C      3.0469      2.6484      7.6095
H      9.9849     -3.3644     -0.0495
H      6.8468      1.2631      4.8807
O     15.1124     10.7139     14.9329
C      8.4679      0.2322      8.3373
C      6.9007      5.9985      9.8938
H     15.3352     -7.3785      9.4675
C      6.5423      2.5379      2.9726
H      6.3920      5.2888      7.4395
H      6.9728      9.2595     12.0560
H      5.1062     -2.2797      7.4601
H      4.7664      7.8713      9.6728
C     17.4879     11.0440     17.7050
C      9.8215     -4.7369      4.9833
O     14.6402     -4.4386      4.9627
C     11.1990     -5.3673      7.2039
C      8.6019      8.3307     12.3000
C     20.1738      8.2437     13.1484
C      6.2970      7.4245     -0.6866
H      5.5358      3.8827      1.5041
H     17.0893      9.7589     14.0390
H      1.2208      0.2426      4.9053
H      8.2290     -7.2776      8.5923
C      6.8039      7.2067     10.7590
C      7.9837      6.0951      3.2962
H     21.2389      9.6455     15.3907
C     -1.2137      6.5501      5.1093
H     14.6687      9.0036     20.3767
H      4.6595      0.7625      2.7972
H      5.2970     11.1817      9.8029
H      4.3141      7.2983     -0.1502
C      9.9530     -1.6938      7.5179
C      5.8470      5.3249      9.4974
C     15.8233      7.6328     17.9347
C      4.4992      6.1830      0.0208
C     17.4199      8.9954     14.8755
H      9.2093     -5.6757      4.8377
H      7.9322      8.3515      2.9171
H      3.7264      0.5336     10.2433
H      7.3993     -0.0258     10.1692
H     17.5173     13.3365     17.8365
C     -0.1129      2.6963      8.8348
C     12.9869      8.4757     12.1427
C      1.5488      2.2172      7.1158
C     12.5166     -6.5618      1.4589
H      5.5110      8.1576     -0.7938
H     -3.4591      3.8063      4.6665
H      6.7401      4.5240      4.8709
H      5.7666     11.0877     11.6103
C      9.6885      7.6225     13.0385
O     14.6383     10.9595     12.7278
C      6.9732      8.2875      8.1715
C     15.6256      8.5566     20.2065
C      3.0316      0.8534      9.3078
C      3.2402      1.6688      4.6381
H     11.5117     -2.4405      1.1686
H     18.6536     11.8796     19.0223
C      4.1297      3.7526      3.2678
H      7.9793     -3.9324      6.0211
C     10.8659     -4.4206      0.8010
C     10.9853      6.8133     12.0214
H     10.1162     -3.5759      7.8460
C      5.3122      2.9206      5.2858
H     16.7777     12.1288     19.1325
H      8.6307      3.1493      2.2851
H      7.9402      0.7580      7.5803
C      2.5533     -1.0941      8.1652
C      4.8706     -1.5392      8.3624
C     -2.0534      5.0781      3.1207
C     16.1393      9.8128     19.4635
C      2.9338      4.0936      2.5935
C      5.0382      8.8891      9.6032
H      2.4189     -0.8523      7.0243
H     16.0661      7.9868     13.3642
H     -2.1408      4.6203      0.9099
H     15.2450     -9.0039     -0.8875
O      5.3796      7.1305      6.6302
C     13.5227     -4.8833      4.6395
H     16.3100     10.3355     20.2706
C     10.1421     -4.5576      3.4926
C     10.8930     -5.4303      2.8710
H      6.2693      9.1014      7.4860
C     10.0644     -5.8173      8.0049
H      0.8474      2.4462      4.6750
H     14.1901      7.9089     10.2842
H      6.1934      1.9538      2.1607
H      0.2657      1.6943      9.1810
C      3.9932      1.8612      1.0569
C     12.9412     -4.3420      2.0166
C     -0.1363      4.0938      3.9727
C      7.2392     -1.2669      7.1873
H      0.7895     -0.2192      3.5698
H      9.4424     -6.4410      7.2920
H     15.4612     10.5625     19.0295
H     14.6167      7.2153     13.4612
O     13.0823     -3.2258      6.4321
C      6.4306     -0.9049      8.1825
C     13.4521     -5.7262      6.7258
C     15.0398      8.0034     13.8560
C     13.6008     -5.3306      2.8216
H      9.4968      0.6189      8.6282
C      2.4975      1.5647      3.3687
C      0.3505      2.7692      7.3518
C      9.9545     -3.0611      6.8401
C     -2.4475      3.0912      4.5897
C     17.7997     12.1969     18.3496
C      2.8393      3.3519      9.8750
C     11.7836     -5.1674      1.5072
C      3.8360     -0.7745      8.1133
N      1.5549      0.5415      3.7716
H      2.1227      1.0222      0.3000
C      3.0318      1.3252     -0.0420
O     17.1906      6.4833     15.3737
C      9.2026      6.7172      1.0885
H     17.9194      9.1641     19.2520
C     -1.9834      4.3174      2.0937
C     10.2008     -5.8453      9.4554
H      7.6828      5.5278      0.0899
H      9.1278      8.0950      8.1231
C     10.5707     -3.0344      0.8311
H      4.7677      9.4921      8.7760
H     15.6232     -5.8027      8.7933
H     -3.1365      5.6659      5.6673
H     12.0163     -3.0332      4.8018
H     14.2790      9.4950     11.1609
H      3.1693      0.3801     -0.5463
H     -1.2406      2.9133      8.9355
C     15.0684      7.6723     15.4718
H      5.0346      5.6471     10.2541
C     14.1650      8.4664     11.3947
C      6.1862     10.8071     10.6455
H      2.8922      2.9155     10.8493
H     16.9615     11.5934     15.4905
C      4.0317      8.4365      4.4790
C      7.3526      7.3159      2.8113
C     20.7187     10.0653     14.4945
C     18.7789      8.5778     14.8258
C      4.1025      6.3793      6.6185
C      1.7608      4.7971      2.5142
C      5.9705      6.0376     -0.0036
C      5.4707      7.8800      4.3667
C      7.6377      7.1546      1.3632
C      4.2972      5.1679      7.7373
C     14.4270     -8.0697      0.9265
C      6.1879      7.4700      5.6263
H      8.8240      5.5953      0.9018
C      7.1557      5.7088      1.0866
H     -0.1229      3.7664      2.8647
H     11.4044     -6.0193      9.7479
O      7.3566      7.2729      5.7382
H      8.8705      9.4384     12.1347
H      2.4430      2.8922      2.9458
H     12.8196     -3.3992      2.5590
H      3.8855      5.6285      0.7232
H      4.7785      5.8817      4.1671
C     12.3268      7.3019     11.6833
C     15.8771      6.5366     15.7860
H     13.8988     -6.6073      9.1359
C     -1.7382      4.3733      4.3458
C      0.4113      6.6943      5.3427
H      4.6774      9.3360     10.3609
H      2.7515     -0.0082      5.2909
C      1.4227      5.7394      4.7464
H      3.1315     -0.1014      1.7365
H     12.5352     -5.8705      8.6743
C      8.2476     -6.9040      9.5290
C      4.2292      0.7182      8.3178
O      6.1376      4.2288      5.5985
C      6.0104      7.8184      3.1133
C      9.0967     -3.7327      5.7315
C     12.8549     -6.4872      2.9737
C     -1.4483      6.4294      3.6291
H     16.5113      8.4709     20.7620
H     14.9595      8.0097     11.9111
H     -2.9654      2.4907      3.4912
C      1.8868      0.0599      8.7596
C      0.6969      5.3070      3.5848
C      5.4483      3.6762      2.7375
H     13.8792     -8.1490      7.8739
H      8.8038      9.2368      9.2343
H     10.8918     -1.6813      7.9972
H     14.7742      9.7661     15.4868
H      7.3298     -2.1446      6.4449
C     14.8911     -6.6341      8.6626
C     -2.0131      5.3572      5.5411
C      3.5761      0.8175      2.2776
C      1.6430      4.4798      5.4879
C     14.7447     -6.4408      7.1059
C     15.2142     -9.0288      0.3777
H     11.5966     -6.8241      1.2957
H      4.9856      2.1474      0.4234
H      2.9866      2.0995     -0.7654
H     10.9923     -3.2362      6.7924
H      5.2702      1.1002      4.5291
C     12.3581     -4.0037      5.1736
C      9.1175     -6.1024     10.1892
H     17.0880      7.8219     14.4666
H     21.3613      9.9069     13.6296
C      8.5147     -1.2845      7.9370
H     10.1784      6.6829      1.5256
H      8.6278     -2.7850      5.0900
H      5.4993      1.3916      9.6115
C     12.4474     -5.5790      7.6674
C      0.5853      3.4726      5.0927
O      8.8386      5.6890      4.0491
C     11.2237     -5.0517      5.6873
C      6.2364      2.2695      7.6318
C      5.2024      2.1834      6.6081
C      3.0392      0.8664      5.6383
H      7.1679      7.0884      7.8994
H      5.6973      3.8270      7.4720
H      8.3096      9.7921      7.5441
H     12.9354     -3.5929      7.2800
C     14.7700     -8.0219      6.9157
C      4.0177      5.6234      5.0831
C      2.8035      2.2945      8.9993
H     19.9701     10.9512     15.0249
C      8.2841      7.1895     11.2717
H      3.7435      5.2203      8.7148
H     11.1316      5.9123     11.5195
H      7.2625      2.0450      7.0641
C      3.9601      3.0275      4.7411
C     17.1940      9.6976     18.4652
C      6.8809      0.1381      9.0516
C      8.2777      8.8261      8.1910
C      5.6204      4.9109      8.0894
C      5.8226      1.3353      8.6928
H      0.3123      3.6352      9.3747
H     18.8076      9.9931     13.2923
H      8.3122      6.0456     11.4220
C     14.5929     10.2550     13.6514
H      2.7242      4.3420      9.8578
H      9.5513     -3.8197      3.2011
