249

C     19.6839      8.7603     13.7002
N     -1.6546     10.5091      1.9586
C      3.8013      1.5769      7.0804
C      2.0152      2.5868      1.5124
C      7.4820      4.8914      2.3609
H     -3.2792      7.3168      2.1584
C      7.3819      3.6096      3.1613
C      3.1556      3.7870      5.5528
C     15.9861      6.9804     19.5097
C      5.8398      1.7870      4.0294
C     -7.1273      8.4474      9.4221
C     13.7609      8.5879     13.7153
N     -0.3111      2.4882      6.3702
C      0.1733      5.8042      0.5259
O     -1.3291      2.6370      0.6961
C      2.8891      4.0563      6.9447
C     15.4172      6.1781     17.5160
C     16.0421     10.3122     16.5474
H     -3.7571      3.6133      4.5681
H     16.9644      5.5460     15.2403
C     16.9973      9.0889     16.2372
H     -8.9889      7.8132     10.4143
H     -7.1993      9.2190     10.4099
H      8.2010      3.6884      3.8129
H     13.2147      7.1808     10.9325
H     -1.1909      4.9318      6.5205
C      2.8819      2.6386      7.6738
H      6.8640      1.1564      4.0297
O     14.0697     10.8351     14.5912
C     -4.9484     12.8693      8.4258
C      6.9274      5.8825      9.6411
H      2.6687      6.2347      9.4215
C      6.0641      3.1009      3.3950
H      6.0601      4.9244      7.3419
H     -7.8946      9.8628      8.9778
C     17.1514     10.9704     17.4732
C     -3.2103      8.3932      5.0553
O      1.8698      8.3743      4.7612
C     -1.7457      8.1686      6.8087
C      8.5246      8.5351     11.9624
C     20.4909      7.8563     12.9030
C      6.5180      7.0813     -0.8037
H      4.9946      4.1803      1.9662
H     18.0131     10.0182     14.4640
H      1.1668     -0.7503      3.3923
H     -5.5238      7.0721      7.8285
C      7.0889      6.7040     10.9122
C      7.8778      5.8360      3.5215
C     -1.2835      6.7500      5.0842
H     16.4249      8.7926     21.0125
H     15.8115      7.1760     13.7368
C     -3.3631     11.7190      6.8697
C      6.0552      4.7010      9.4346
C     15.7548      7.5298     18.0523
C      4.9648      5.4024     -0.1186
C     17.7199      9.1123     14.9631
H     -3.7166      7.5353      5.1372
H      7.8754      7.8778      3.7398
H     -9.1568     13.8884     10.2924
H     -6.3440     12.2308      9.9239
C      0.1787      3.5768      8.7983
H     20.6300     10.8446     14.0781
C     13.1634      8.4077     12.3673
C      1.6362      1.7754      7.9253
H     -2.0191      7.8843      9.7168
C     -0.8314      6.2750      1.4939
H      5.7614      7.7051     -0.9489
C      9.8972      7.8755     12.4117
O     15.4428     10.4361     13.0174
C     -6.3904      8.7036      8.3050
C     16.8447      8.1269     20.2240
C     -9.2733     14.3507      9.4285
C      2.7690      1.4667      4.8217
H     -1.1198     11.3392      1.9471
H     -7.0419     11.9283      7.2454
H     -9.7495     17.0335     10.7778
C      3.6509      3.3929      3.3199
C     -2.1748      8.5630      0.7739
C     11.1266      7.4578     11.7094
H     -1.8249     11.0399      5.9092
C      5.0458      2.3779      5.2059
H     -0.8599      2.1912      0.0037
C    -10.3248     12.3030      8.4690
C     -8.1039     10.9503      8.3144
C     -2.4575      5.1248      3.4220
C     16.6419      9.2360     19.1423
C      2.2378      3.4644      2.7461
C     -8.3268      7.6286      9.5587
H     15.9217      8.5397     14.4522
H      7.7205      5.2754      5.2134
H      2.6688      5.0650     -0.5453
O      5.4751      6.2870      6.4206
C      0.5820      7.9665      4.3558
H     -8.5854     10.2928      7.4815
C     -3.4329      8.7645      3.6497
C     -2.4814      7.6684      2.9326
H     -6.6347      8.4984      7.2849
C     -2.8925      8.2266      7.5951
H      2.1744      3.6694      4.9370
H     13.5933      9.0585     10.3832
H      4.5337      3.5393      1.2917
H     -0.3376      4.2764      8.2989
C      3.0265      1.5852      1.3172
C      0.0364      8.5962      2.1238
O      4.8354      3.7190      0.3539
C     -0.4752      3.1357      1.5893
C     -0.4351      4.0767      4.2886
C     -5.4937     10.7943      7.5004
H     -3.7168      7.8828      7.0519
H     15.4788      9.6144     19.2552
H     -1.1945     10.0645      4.0908
H      0.4403      6.1339     -0.5076
O      0.2374      9.9665      5.5587
C     -6.7013     11.4655      7.9794
C      0.5098      7.2102      6.6508
C     15.0814      7.9454     14.1127
H     15.4985      8.0931     16.2433
C      0.5797      7.5671      2.9824
H     -4.4788     13.5964      9.2433
C      2.3608      0.4665      3.8091
C      0.3191      2.3713      7.6309
C     -2.7823     10.6438      6.2075
C     -2.7109      3.3932      5.0194
C     17.6091     12.1706     17.2378
C     -9.9242     16.8853      9.7784
C      0.5864      2.1317      1.5369
C     -1.1533      7.8045      1.5478
C     -9.0129     12.1834      8.6662
N      1.7733     -0.5521      4.2266
C      3.7997      1.2125      0.0053
O     16.8791      6.2686     15.7720
C      9.2594      6.5819     -0.1727
H      0.4195      1.1243      7.3965
C     -3.0155      4.5855      2.2034
C     -2.8261      7.7558      8.9225
H      1.9863      0.7763      6.7486
H     -5.2238     10.1320      9.6762
C     -1.8368      9.9721      0.6972
H     -7.9342      6.9252     10.2471
H      2.2736      7.9424      9.1133
H      0.1007      9.5015      2.6266
H     14.3027     10.0292     11.3706
H      4.2781      0.2349     -0.0338
H      1.3148      3.4341      8.8174
C     14.9099      7.4646     15.5592
H      3.2000      1.1329     -0.8511
C     13.8060      9.2473     11.3583
H     15.1511      9.7736     16.7088
C      4.2794      8.1899      4.3405
C      7.6111      7.0840      3.1980
C     20.5801      9.7757     14.3077
C     18.6458      8.0909     14.7467
C      4.2585      5.7966      6.4266
C      1.5195      4.9114      2.6773
C      6.2780      5.8540      0.1101
C      5.5850      7.4505      4.3860
C      8.2135      6.8361      0.7237
C      3.9043      5.0157      7.5461
C      1.3184      5.3630      1.3095
H     -2.5007      5.6131      6.2364
C      6.4275      6.7490      5.3226
H     -3.3222      5.3685      1.5526
H      0.6014      1.4184      0.7581
C      7.1744      5.6110      1.1935
H     -0.7839      3.1807      3.9274
O      7.5308      7.1574      6.1250
H      8.4681      9.6001     12.0440
H     20.6203      9.4595     15.4241
H      1.7216      3.0820      3.4515
H     -1.7874     10.2294      2.8473
H      3.0704      4.4035      1.1534
H      4.4283      5.1753      4.3339
C     12.3763      7.5202     11.7489
C     15.5209      6.0209     15.9960
H      0.9981      6.3910      9.4628
C     -1.8192      4.5131      4.5015
C      0.1948      6.8945      5.2622
H     17.9214      7.8736     20.3737
H      1.7917      2.0707      5.3090
C      0.9642      5.6678      5.0011
H    -10.8734     11.3025      8.5813
H     16.0781     10.6915     15.3559
H     -0.3147      8.0113      8.4421
C     -5.2375      6.3040      8.5580
C     -8.4440     13.4836      8.3611
C      6.1512      7.4905      3.0589
C     -3.6981      9.4456      5.9818
C     -0.2830      6.2507      2.9104
C     -1.8744      6.5136      3.5899
H      4.8474      5.1975     -1.0814
H     -2.3726      2.9707      5.9720
C    -10.8191     13.8448      9.2559
C      0.3822      5.1199      3.6319
C      4.8417      4.0691      3.0437
H      1.0808      4.9950      8.3521
H     -4.2823      9.1689      8.5021
H     -2.4564     12.4911      7.2950
H     -5.7772     10.2292      6.5346
C      2.0263      6.8323      8.9043
C     -1.6358      5.4132      5.6686
C      2.2630      0.5645      2.1506
C      0.8129      4.8623      6.1533
C      1.8666      6.6071      7.3470
C      2.3619      4.8444      0.3716
H      3.7418      1.6870      2.1304
H      4.5236      2.0331     -0.2403
H     -5.1979      5.8394      7.3942
C     -0.6641      9.1173      4.6358
C     -4.0802      7.2820      9.3022
H      4.3096      5.9602      0.5970
H     -4.3618      9.0307      3.2805
C     -4.5261     11.8744      7.5243
H     -3.6256      3.5504      2.1599
H     -4.6039      9.9001      5.5419
H     -6.7263     14.6335      9.0250
C     -0.4567      7.9048      7.2260
C      0.3599      3.7118      5.7022
O      8.6308      5.6289      4.5957
C     -1.8156      8.2400      5.2371
C     -6.6588     14.1738      7.0208
C      5.1998      2.1257      6.4498
C      3.1594      0.7518      5.9884
H      8.4359      7.1918      5.7049
H     -6.0144     15.1346      7.0405
H      5.4882      3.2252      7.8602
H      0.8892      9.3733      5.6507
H     18.5730     12.0555     17.9331
C      1.6878      5.1029      7.2555
H     -0.7413      3.8676      2.4110
C      3.6392      5.2891      5.1783
C     -9.5944     15.8297      9.0409
H     21.6370      9.5901     14.0439
C      8.4090      7.5394     10.6384
H      3.7664      5.6783      8.2692
H     10.9780      6.5551     11.2400
H     -6.4273     13.2321      6.6201
C      3.7829      2.7776      4.6734
C     17.5881      9.9754     18.4957
C     -6.2080     12.5689      8.8788
C     -5.2914      9.6414      8.5212
C      5.3779      4.3552      7.9593
C     -7.0854     13.8809      8.3947
H     -0.3192      2.8608      9.5024
H     18.9303      9.4333     12.9505
H      9.6808      5.5141      0.1917
H      0.0558      1.7335      5.3966
C     14.3480     10.0718     13.5596
H    -10.4097     17.7043      9.1965
H     -2.9495      9.8470      3.4703
