261

C     19.6745      9.1077     13.6681
C      3.8933      1.5352      6.9336
C      2.9248      3.3680      1.2409
C      7.6431      4.8759      2.2896
H     -2.6429      3.3995      2.1831
C      7.5532      3.5115      2.9244
C      3.1416      4.0949      5.4066
C      7.1023      9.5655     10.6137
C     15.8917      7.0400     19.5445
C      5.9938      1.8161      4.2725
C      6.4596      8.2643      9.8801
C     13.6230      8.9399     13.6515
N     -0.1514      3.3811      6.4764
C     13.5868     -6.8057      0.7303
C      3.2849      4.1253      6.9399
H     13.7817     -6.3131     -0.3800
C     15.7063      6.2194     17.1526
C     16.9363     10.4783     16.6400
H      1.1403      0.5487      9.7998
H     -1.6302      2.1853      4.0907
H     18.0796      5.9786     16.0054
H      6.9436     11.4510     10.5390
C     16.8849      9.0243     16.2312
H      8.1174      9.4557     10.2629
H      7.7488      3.7755      3.8532
H     -1.8866      5.4297      6.9385
C      3.0139      2.5857      7.3244
H      9.3383     -2.8943     -0.4898
H      7.0279      1.6542      5.1839
O     14.7280     10.6416     14.9660
C      7.9768     -0.0224      8.5392
C      6.8639      6.1553      9.7379
H     13.8536     -6.7437      9.1663
C      6.2865      2.4794      2.8672
H      6.2466      4.5317      7.3119
H      7.4595      9.4947     11.5762
H      4.5873     -2.7139      8.5308
H      4.8383      6.8122     10.0549
C     17.5112     10.7002     17.8350
C     10.1771     -4.1874      4.8197
O     14.7266     -4.5837      4.5146
C     11.5395     -4.9613      6.9613
C      8.7535      8.0305     12.0884
C     20.3525      8.0640     13.0547
C      6.4221      7.1628     -0.6448
H      5.2088      3.5305      1.3937
H     17.2408     10.0921     14.6155
H      2.4300     -0.7223      4.6624
H      8.7583     -7.1421      7.9466
C      7.0465      7.1420     10.7902
C      7.8445      5.9294      3.1819
H     21.1722      9.9139     15.1059
C     -1.0613      6.6253      4.8995
H     15.7390      8.6196     21.2427
H      4.6528      0.8037      2.2117
H      5.1146     10.9844     10.2764
H      4.0439      6.1103     -0.0885
C      9.7707     -1.3734      7.1074
C      5.7716      5.1508      9.5385
C     15.7998      7.4228     18.0174
C      4.6183      5.7186      0.7199
C     17.3699      9.0432     14.8717
H      9.4074     -5.2895      5.1830
H      8.7874      7.8986      2.9250
H      3.7820      1.2986     10.0998
H      6.5089     -0.1332      9.8201
H     17.2587     12.4762     17.3526
C      0.1139      2.5881      8.8961
C     12.9604      8.7199     12.1424
C      1.5715      2.1066      7.1382
C     12.3558     -6.4544      1.1845
H      5.4970      7.8242     -1.1024
H     -1.8301      2.1851      5.7837
H      6.2554      4.5165      6.2060
H      5.8553     10.4486     11.6141
C      9.9017      7.5603     12.9503
O     14.6587     10.9499     12.8049
C      6.9697      8.6793      8.5311
C     16.1044      8.3115     20.3918
C      3.3273      1.1533      9.1915
C      3.5077      1.4660      4.6206
H     10.5002     -2.0132      0.3144
H      5.7519     -0.2068      7.0269
C      3.9400      3.4214      3.1105
H      8.5805     -3.1980      5.1552
C     10.7325     -4.1836      0.6555
C     11.0475      6.8793     12.0944
H     10.0421     -3.0403      6.9413
C      5.2337      2.9183      5.3801
H     18.0379     12.6406     18.6629
H      8.5101      2.8406      2.6609
H      8.2512      0.9951      8.3812
C      2.2873     -0.7717      8.2929
C      4.7526     -1.7859      8.2636
C     -2.5092      5.2550      3.4922
C     16.3029      9.5178     19.6250
C      2.6889      3.7496      2.4985
C      5.0391      7.8904      9.9674
H      1.9076     -0.6081      7.3114
H     -2.8358      4.6095      1.0443
H     15.1909     -9.1217     -0.7384
O      5.5158      6.9068      6.7972
C     13.5010     -5.0519      4.3534
H     15.9312     10.3594     20.6331
C     10.1783     -4.3318      3.4055
C     10.8554     -5.3873      2.8525
H      6.3044      9.1794      7.9281
C     10.3006     -5.0861      7.8507
H      1.2190      2.8508      4.4804
H     14.3818      8.1234     10.4209
H      6.6615      1.7781      2.1663
H      0.2009      1.5620      8.8485
C      3.5993      2.0614      1.0142
C     12.7517     -4.2128      2.0118
C     -0.2462      4.2653      3.8882
C      7.2773     -1.7126      7.1572
H      1.4269     -0.9120      3.5940
H     10.0132     -6.0199      7.4836
H     15.4537      9.6130     18.8943
H     15.8056      7.6231     13.2176
O     13.2940     -3.3326      6.1219
C      5.9952     -1.0956      7.7853
C     13.4039     -6.2523      6.5720
C     15.1394      8.2121     14.0883
C     13.4396     -5.2503      2.8585
H      8.4895      0.1850      9.5030
C      2.9273      1.0674      3.3535
C      0.4742      2.8073      7.5355
C     10.2780     -2.2728      6.2816
C     -2.2089      2.8955      4.7902
C     17.9698     12.0519     17.8254
C      2.5024      3.4106      9.6761
C     11.6264     -5.0374      1.5240
C      3.8152     -0.8200      8.2297
N      2.2794     -0.4282      3.5088
H      1.4344      1.8898      0.2191
C      2.7335      1.6409     -0.0223
O     17.4142      6.7133     15.5831
C      9.3962      6.8341      1.0767
H      1.6943      1.3849      7.8047
C     -2.4822      4.5063      2.1700
C     10.2488     -5.2913      9.4290
H      1.2593      2.0266      6.1207
H      7.7656      5.3668      0.2535
H      8.2950      9.7813      7.0736
C     10.3078     -3.0518      0.0815
H      4.5184      8.4191      9.2461
H     15.5253     -5.9951      9.3919
H     -2.7562      5.9580      5.4338
H     12.0386     -3.3036      4.3240
H     14.6717      9.8513     11.0561
H      3.0341      0.6157      0.2087
H     -0.9863      2.7817      8.8413
C     14.8046      7.5096     15.1893
H      4.7935      5.5824      9.8662
C     14.4044      8.7755     11.3379
C      6.0935     10.8123     10.6765
H      2.2799      3.2435     10.6699
H     16.8766     11.4986     15.8885
C      4.2570      8.2238      4.6277
C      7.7908      7.3696      2.8786
C     20.5012     10.1915     14.2561
C     18.7245      8.4735     14.8779
C      4.2405      6.0213      6.5202
C      1.9245      4.9474      2.4983
C      5.8036      6.0341      0.3408
C      5.7477      7.4626      4.3381
C      7.8025      7.0529      1.1949
C      4.2207      4.8925      7.5039
C     14.3107     -7.9832      1.0307
H      7.7222      6.1639      5.2030
C      6.3785      7.4413      5.5425
H      9.3279      5.6946      1.1378
C      7.0713      5.8313      0.9802
H     -0.3400      3.2525      3.3306
H     11.0452     -5.5451     10.0621
O      7.5279      7.1835      5.9552
H      8.9451      8.9043     11.5967
H      1.9674      1.7541      3.5093
H     12.7400     -3.2624      2.7465
H      4.3111      4.9522      1.3582
H      4.7971      4.8619      4.6655
C     12.0181      7.5411     11.4424
C     15.8051      6.5488     15.8774
H     13.9922     -5.1492      8.3258
C     -1.7368      4.3181      4.5096
C      0.3711      6.6670      5.1237
H      4.8846      8.5805     10.7950
H      2.9372     -0.1498      5.8492
C      1.4641      5.5399      4.5835
H      3.3500      0.1388      1.4457
H     12.5540     -6.5144      8.4271
C      8.1515     -6.7486      9.0318
C      4.2044      0.6735      8.1455
O      6.3828      3.7862      5.3593
C      6.3508      7.8231      3.0253
C      9.6232     -2.9583      5.0980
C     12.8088     -6.6976      2.7183
C     -1.4602      6.3876      3.5378
H     17.1406      8.0344     20.3919
H     15.0266      8.2466     12.0797
H     -3.3007      3.0422      4.4531
C      2.1568      0.1841      9.3280
C      0.7725      5.1028      3.3373
C      5.0553      3.0935      2.3928
H      9.4831     -4.3191      7.7220
H     10.2538     -1.4133      7.9278
H      7.2942     -2.1065      6.2328
C     14.6721     -6.3092      8.6073
C     -1.9055      5.4843      5.6488
C      3.7248      1.1448      2.0486
C      1.7710      4.3816      5.5310
C     14.6602     -6.7965      7.1939
C     15.0487     -8.9581      0.2536
H     11.5364     -6.7870      1.1956
H      4.4549      2.6163      0.3949
H      3.2180      2.3864     -0.7339
H     11.5003     -2.1132      6.2046
H      5.6728      0.7560      4.2646
C     12.5904     -3.9502      4.9878
C      9.0873     -5.9624      9.7507
H     17.2243      6.7232     14.6596
H     21.4947     10.0779     13.8797
C      8.4186     -1.1199      7.6227
H      9.9554      6.9439      2.0071
H      9.6570     -2.0550      4.4645
H      6.0204      1.8495      9.6083
H     14.0387     11.7536     12.4312
C     12.3666     -5.9637      7.4519
C      0.6693      3.5971      5.0817
O      8.2961      5.5607      4.5847
C     11.4416     -4.5242      5.5223
C      6.2766      1.8179      7.3424
C      5.0692      2.4010      6.7366
C      3.5311      0.7423      5.7673
H      6.4565      7.6530      8.1452
H      8.6858      9.4557      8.8068
H     13.8437     -3.9116      6.7625
C     14.8170     -8.2332      6.8951
C      3.9600      5.4112      4.9363
C      3.0410      2.4961      8.7814
H     20.2088     11.2355     14.3623
C      8.4817      7.0285     11.1415
H      3.6192      5.4828      8.2013
H     10.5525      6.1971     11.4846
H      7.2884      2.0349      6.9293
C      3.9007      2.9704      4.6518
C     17.4038      9.4833     18.6969
C      6.5001     -0.1164      8.7556
C      8.2275      9.3322      7.8738
C      5.5593      4.6083      8.2251
C      5.7489      1.1779      8.6013
H      0.6602      3.1433      9.8585
H     10.1354     -4.0509      9.4070
H      9.9920     -0.0750      6.8190
H     19.1880      9.7338     13.0697
H      8.5514      5.9441     11.4251
H     -0.9631      4.0931      6.4850
C     14.3518     10.2466     13.9177
H      3.0765      4.4427      9.5669
H      9.8746     -3.5105      2.8786
