261

C     19.7148      8.3243     13.3827
N     -2.7633     10.7693      1.5942
C      3.6299      1.5690      7.1063
C      2.4800      2.2845      2.4261
C     -5.3000     17.6968      2.4337
H     -3.3167      6.9617      2.3790
C     -5.3812     16.4504      3.0138
C      3.6089      4.0777      5.2284
C     16.2810      7.1883     19.2897
C     -6.5820     14.7302      4.3316
C     -7.1274      8.3832      9.5827
C     13.6660      8.9496     13.8404
N      0.3639      2.7485      5.9622
C      0.3531      5.7508      0.4971
O     -1.2368      2.4995      1.8310
C      3.2905      4.1102      6.7151
H     13.5158      6.8791     11.9414
C     15.7708      6.1723     17.3021
C     17.1079     10.4304     16.5750
H    -11.7876     14.1006      9.7371
H     -2.9929      2.8181      5.1420
H     17.4663      7.1576     14.5879
C     17.5469      9.1367     16.2971
H     -8.6454      6.9228     10.5342
H     -1.3293      5.8955      7.0270
H      6.5770      2.0191      9.3822
C      2.9739      2.8591      7.5455
H     -5.6132     15.0593      5.0480
O     14.6830     10.2133     15.2657
C     -5.2456     12.7717      8.1562
C      6.1048      5.9998      9.8886
H      2.7010     -0.5207      6.4704
H      4.0363      5.3665      8.2704
C     -6.4691     15.7790      3.2109
H      6.0205      3.2084      7.7352
H     -8.7766     10.7661      9.4746
H      3.0139      6.7863      8.7383
C     17.5586     11.2164     17.7369
C     -2.8969      8.7104      4.7320
O      2.3260      8.4550      4.6143
C     -1.4062      8.4498      6.8941
C      8.7184      7.9952     11.7863
C     20.6075      7.3837     12.9213
C     -6.3458     19.3555     -0.7429
H     -7.8357     17.6844      2.1745
H     17.5452      9.5122     13.8997
H      1.8520     -1.1589      5.4813
H     -4.7295      5.1467      8.7453
H     15.7057     10.4315     12.6714
C      7.5286      2.5788      9.1481
H      0.5458      0.9761      2.1999
C      7.0729      6.4843     10.8245
C     -4.7124     18.5034      3.3232
H     -4.7810     19.7755      1.8099
C     -0.9889      6.9759      5.0511
H     15.5240      8.4395     20.7971
H      3.5981     -0.5895      2.4647
H     14.1665      6.9128     13.2982
C     -3.1543     11.5037      7.1919
C      6.2460      4.7584      8.9029
C     16.2888      7.4852     17.7752
C     -8.0664     18.0947     -0.0768
C     17.9652      9.0376     14.8944
H     -3.2101      7.8133      5.0539
H     -4.4623     20.3979      3.6546
H     -9.2583     14.7374     10.4127
H     18.1717     12.7069     16.2445
C     -0.3849      3.4672      8.2159
H     21.5096      9.2216     14.2431
C     12.9440      8.8943     12.3988
C      1.6901      2.1409      7.7717
H     11.1505      6.8046     10.2596
C     -0.5068      6.6091      1.3977
H     -6.8322     20.2940     -1.2097
H     19.3097      9.0396     12.5667
C     10.0929      7.5201     12.2869
O     15.0362     11.0647     13.2848
C     -6.4743      8.3391      8.3912
C     16.4296      8.5176     19.9555
C     -9.6522     14.8651      9.4355
C      2.6864      0.9834      4.9889
H     -1.8856     10.5650      2.0801
H     -6.9945     11.8762      6.9215
H    -11.0415     16.4818     10.2680
C      4.1419      3.5074      3.1796
H     -3.2765      7.4943      6.6934
C     -2.0175      8.6249      0.2742
C     11.2272      7.0254     11.5447
H     -1.7445     10.8282      5.6230
C     -7.8840     15.0265      4.9450
H     17.4578     13.1739     18.0178
C    -10.5682     12.6495      8.8275
C     -8.4828     11.2087      8.4623
C     -1.8564      4.8318      3.4921
C     16.3351      9.6214     19.1087
C      2.8096      3.7428      2.4652
C     -7.9666      6.9902      9.5796
H     15.3271      8.0717     13.2040
H     -3.3002     17.5584      4.5684
H      1.0143      3.5216     -0.2282
O     -7.0705     19.5446      6.5087
C      0.8984      8.0992      4.5610
H     -9.1479     10.9804      7.5645
C     -2.5399      8.9131      3.3903
C     -2.3474      7.6934      2.4985
H     -6.8206      7.2269      8.3522
H     -4.3929     16.3649      3.8431
C     -2.7842      8.1529      7.4912
H      2.5909      4.2233      4.6988
H     12.6473     10.2659     10.7771
H     -9.1736     16.8847     -0.6629
H     -0.5414      3.7607      9.3205
C      3.3855      1.0781      2.2667
C     -0.0691      8.8812      2.1698
O     -8.6516     16.7708      0.2221
O      7.2652      4.3617     10.7375
C     -0.1326      2.9225      1.5227
C      0.2026      3.9495      3.8529
C     -5.7419     10.6799      7.7947
H     -3.3598      8.9172      7.1375
H     15.6051     10.2685     18.6121
H     -0.0374     10.1317      4.2294
H     12.7701      7.8860     10.3890
O      0.8338      9.6281      6.2255
C     -6.9787     11.3269      8.0676
C      0.7341      6.9787      6.5887
C     14.5325      7.8086     13.8247
H     15.4340      8.6524     15.2961
C      0.6204      7.7637      2.9407
C      2.3034      0.0856      4.0089
C      0.1860      2.2367      7.5049
C     -2.8563     11.0229      5.9956
C     -2.3273      3.5312      5.5104
C     17.8666     12.5076     17.4352
C    -10.1023     16.9450      9.7716
C      1.0716      1.9588      1.7515
C     -1.2746      7.9515      1.5344
C     -9.2166     12.5077      8.4960
N      1.4629     -0.9431      4.5372
O     16.9703      6.2585     14.9765
C     -3.1011     19.2790      0.3611
H     18.3396      9.8137     19.3175
H     -0.4573      1.2532      6.9573
C     -2.8277      4.5003      2.6833
C     -3.0047      7.9874      8.9668
H      8.2464      1.9230      9.4813
H      1.8202      1.3253      6.9442
H      6.8239      3.5352     10.9761
H     -4.4703      9.2417      8.7524
C     -2.6806      9.7939      0.4781
H     -8.4196      7.1146      8.6943
H      1.5686      7.7887      8.9368
H     13.8867     10.9272     11.7956
H     -1.2399      3.3906      7.7127
C     15.0042      7.6966     15.2231
C     12.9854     10.0977     11.6968
H      1.2305     -1.9696      4.1918
C     -8.4217     20.9081      4.0490
C     -5.0208     19.8726      3.0285
C     20.6048      9.5523     14.0463
C     19.0266      8.0756     14.8291
C     -8.4051     18.9724      6.0855
C      2.0892      5.0258      2.4354
C     -6.5695     18.3451      0.2344
C     -7.0705     20.2505      4.2399
C     -4.3820     19.3237      0.7122
C      4.3538      4.8773      7.3566
C      1.6897      5.1219      0.9655
H     -3.0015      6.1534      5.5153
C     -6.3107     20.0863      5.3961
H     -0.7589      2.7433      5.5763
H     -2.8698      4.8876      1.6350
H      1.4308      1.7350      0.8068
C     -5.6379     18.0981      1.1093
H     -0.4235      3.1312      3.4960
O     -5.1241     19.9171      5.6619
H      8.4635      9.0907     11.7164
H     21.0126     10.3540     13.5333
H      1.2840      3.1333      3.8799
H     -2.9852     11.7205      0.9526
H      1.8458      5.0622     -1.0132
H      5.0217      5.5062      4.2928
C     12.7112      7.5068     11.4957
C     15.7550      6.4212     15.7629
H      1.0518      6.4214      9.0444
C     -1.6528      4.5876      4.8922
C      0.6198      6.8360      5.2174
H     17.5089      8.5776     20.1571
H      2.6709      2.0433      4.4881
C      1.4051      5.7292      4.6479
H    -11.7321     11.9415      9.0871
H      2.0195     -0.5048      1.9097
H     16.5541     11.0920     15.6887
H     -0.1768      7.6647      8.4831
C     -4.1866      6.1611      8.4402
C     -8.7600     13.8877      8.3976
C     -6.4351     20.2057      3.0296
C     -3.6232      9.8678      5.4715
C     -0.0075      6.5016      2.7629
C     -1.1993      6.3079      3.6213
H      2.6395      3.4069     -0.5844
H     -8.2002     18.2201     -1.0892
H     -2.0271      3.5141      6.6265
C    -10.9152     14.2304      8.9854
H     -1.2347      9.4969      7.2715
C      0.7573      5.2838      3.3495
C     -7.6089     16.6100      2.4848
H      1.5711      4.1858      7.3500
H     -4.9398      8.9170      7.0816
C      7.3203      4.0321      9.3409
H     -2.3459     11.9637      8.0746
H     -5.9540     10.5469      6.7096
C      1.9723      6.7538      8.5720
C     -1.8025      5.8602      5.7321
C      2.8709     -0.1331      2.8014
C      1.2138      4.8572      5.8066
C      2.0936      6.7161      7.1323
C      1.8708      4.2328     -0.1963
H     -1.4147      6.0884      1.5365
H      4.4094      1.4900      2.8246
H     -1.9569      7.6973      9.3546
H     -4.6098      6.5230      7.2332
H     -6.2323     13.7278      4.1913
C      0.1421      9.3425      4.9475
C     -4.1991      7.3359      9.2606
H     -8.5716     18.6451      0.5751
H     -3.6677      9.3305      3.3465
C     -4.4838     11.7695      7.6149
H     -3.3864      3.5770      2.6078
H     -4.5511      9.7413      5.8030
C     -0.3346      7.6163      7.3530
C      0.3429      3.9937      5.4032
O     -4.2951     18.2501      4.5822
C     -1.3114      8.4366      5.4140
C     -6.9051     14.0954      7.0092
C     -8.0165     14.8117      6.3049
C      2.6195      0.6085      6.2589
H     -3.4132      5.5766      7.9533
H     -6.1233     13.3882      6.5389
H     -8.3391     16.3013      8.7745
H     -6.4870     12.9804      9.7822
H      1.0121      8.7306      6.5733
C      2.0439      5.0635      6.9426
C      4.0986      5.3143      4.7777
C     -9.3858     16.1511      9.0004
H     20.0673     10.1043     15.1703
H     -0.5077      5.3770      0.0550
C      8.2002      7.3190     10.4865
H     -9.4649     17.4689     10.6831
H     11.5199      6.0616     11.8027
C      4.0830      2.9136      4.4784
C     17.4875     10.2528     18.9894
C     -6.5817     12.6021      8.7825
C     -5.4452      9.3001      8.0374
C      5.6785      4.2726      7.7067
C     -7.2366     13.8298      8.3241
H     -0.0041      4.3649      7.9573
H     -3.3516      9.8684     -0.5461
H     -2.2684     18.6993      0.1833
C     14.5723     10.0749     14.0756
H    -10.4366     18.0141      9.5229
