261

C     19.7433      8.2716     13.6340
N     -2.4217     10.8126      1.1914
C      3.9659      1.7067      7.1055
C      2.3841      2.5231      2.1442
C      7.8647      4.6820      2.3015
C      7.8932      3.2131      2.8845
C      3.5298      4.0343      4.9456
C     16.3370      7.3107     19.4148
C      6.1607      1.8750      3.9125
C     -7.4660      8.2210      9.6488
C     13.6510      8.9507     13.6156
N     -0.1024      2.9295      5.8592
C      0.1901      5.7743      0.3442
O     -1.3084      2.1777      1.6822
C      3.2229      4.1454      6.6044
C     15.7142      6.3629     17.3294
C     16.7278     10.2389     16.7480
H    -11.6899     15.2532      9.2255
H     -2.8378      2.8054      4.6080
H     16.5855      6.7624     13.7306
C     17.1232      8.9265     16.4207
H     -8.6852      6.8202     10.5368
H     -8.0412      8.8504     10.2459
H     -2.1596      5.9689      7.3467
H      7.9054      3.2501      7.9002
C      2.7426      2.7116      7.2418
H      7.0009      2.0058      4.7720
O     14.2071     10.3066     15.3954
C     -4.9298     12.8494      8.4684
C      6.1672      5.8393      9.7316
H      3.4372     -0.4009      6.3863
H      3.7758      5.1737      8.2079
C      6.5340      3.1187      3.2699
H      5.9800      3.1944      7.7763
H     -8.4496     10.4772      8.9810
H      3.3311      6.8752      8.5940
C     17.6015     11.0367     17.7539
C     -2.7365      8.6781      4.7185
O      2.0748      8.5067      4.9535
C     -1.4145      8.4626      7.1648
C      8.6732      7.6238     11.8006
C     20.7520      7.4669     12.8504
C      6.6691      6.6509     -0.8073
H      5.7089      4.9985      2.2312
H     17.3167      9.2271     14.1647
H      1.3512     -0.9038      5.2583
H     -4.0742      5.1443      8.5892
H     15.5342     11.2777     12.7633
C      7.8977      2.7931      8.8576
H      0.6609      1.1178      1.4287
C      7.0700      6.3114     10.7103
C      8.1437      5.6683      3.2757
H      8.1949      7.4462      1.9948
C     -1.2585      7.0929      5.1233
H     15.9092      8.8781     21.1871
H      2.7418     -0.5371      1.9396
H     14.0991      6.8323     13.5675
C     -3.2400     11.4508      7.3003
C      6.4300      4.7605      8.9547
C     16.1340      7.5234     18.0091
C      5.0226      5.1296     -0.3241
C     17.7733      8.7134     15.0958
H     -3.2127      7.7967      5.0769
H      8.2818      7.8137      3.8827
H     -9.1042     14.5392     10.4025
H     17.2259     12.8641     17.0624
C     -0.1779      3.5528      8.3568
H     21.9426      8.9907     13.8558
C     13.0640      8.7451     12.2332
C      1.5785      1.8362      7.4899
H     10.7422      7.8314     10.3197
C     -0.7727      6.3541      1.3972
H      5.5806      7.0619     -0.8927
H     19.1347      8.7153     13.0057
C     10.1690      7.4017     12.5083
O     14.9552     11.2718     13.5997
C     -6.4236      8.3899      8.7873
C     16.7623      8.6650     20.2932
C     -9.5096     14.8452      9.3851
C      2.6818      1.0067      5.0512
H     -1.5024     10.7767      1.6590
H     -7.0051     12.2817      7.1373
H    -11.1575     16.5502      9.9461
C      4.3074      3.3813      2.9726
H     -3.0993      7.0352      7.1772
C     -2.2100      8.4401      0.4042
C     11.2067      7.2208     11.3059
H     -1.6899     10.5066      5.9531
C      5.0409      2.0845      4.9794
H     18.6113     12.9279     18.6897
C    -10.6584     12.8841      9.2866
C     -8.4611     11.5784      8.6020
C     -2.4320      5.4423      3.6958
C     16.7686      9.5953     19.1998
C      2.7997      3.8141      2.5281
C     -8.0429      6.7564      9.6720
H     15.2323      7.7676     12.7896
H     -3.5865      5.6365      3.6796
H      1.6050      3.7226     -0.8329
O      5.8990      6.3875      6.6295
C      0.7306      8.3233      4.4507
H     -9.2556     11.6751      7.8974
C     -2.4402      9.0772      3.2459
C     -2.0077      7.6189      2.7768
H     -5.7829      7.6777      8.3348
H      8.6931      3.3993      3.7881
C     -2.8874      8.0950      7.7093
H      2.5535      3.9378      4.6461
H     13.7042      9.3850     10.4956
H      5.3290      3.7093      1.2361
H      0.4615      4.1697      8.6257
C      3.4248      1.4220      1.8968
C     -0.1806      8.6032      1.9192
O      4.6562      4.0216      0.4641
O      7.5830      4.2070     10.8471
C     -0.2416      2.7901      1.6122
C      0.2698      4.0065      3.7609
C     -5.7969     10.7632      7.7032
H     -3.5188      8.8588      7.5950
H     15.9702     10.0715     18.7978
H     -0.2838     10.1823      4.0157
H     12.9815      7.7074     10.4045
O      0.2209      9.9724      6.0576
C     -6.9982     11.7708      8.1576
C      0.5339      6.9341      6.6003
C     14.5807      7.7766     13.7382
H     15.5842      8.5075     15.7971
C      0.7287      7.7616      2.9128
H     -4.6737     13.6877      7.9632
C      2.5421     -0.2139      4.0828
C     -0.0187      2.4732      7.2876
C     -2.6937     10.4674      6.3479
C     -2.4029      3.5537      5.3455
C     18.1296     12.3936     17.6544
C    -10.1726     17.0358     10.0691
C      1.1772      2.0524      1.2454
C     -1.2774      7.8163      1.4016
C     -9.2758     12.7698      9.0785
N      1.9132     -1.2439      4.5750
O     16.9071      6.2408     14.7746
C      9.7151      5.9788      0.3386
H     18.7341     10.5750     19.3365
H     -0.6446      1.5212      7.2338
C     -2.3315      4.2167      2.8139
C     -3.1953      8.1203      9.1935
H      8.0342      1.7505      9.0590
H      1.6158      0.9841      7.1266
H      7.0524      4.1609     11.7096
H     -5.1171      9.7339      9.4083
C     -2.8423      9.7654      0.4439
H     -8.8578      6.3060      9.1016
H      1.5432      7.5152      8.9878
H     -0.5335      9.6007      1.8345
H     14.3554     10.1321     11.8212
H     -1.2868      3.6178      8.9665
C     15.0005      7.6229     15.2413
C     13.3728      9.9039     11.4054
H      1.7624     -2.3334      4.2323
C      4.3930      7.9190      4.3849
C      7.8796      7.1328      2.9793
C     20.7058      9.5405     14.1455
C     18.7968      7.7817     14.7562
C      4.5745      6.0723      6.3148
C      2.0371      5.1938      2.3370
C      6.4397      5.4512      0.0046
C      5.7984      7.0205      4.2127
C      8.4090      6.1351      0.4968
C      4.2998      4.9066      7.4081
C      1.2118      4.8310      0.9878
H     -2.9511      6.4849      5.7228
C      6.6319      6.9783      5.4552
H     -1.1359      2.9182      5.7333
H     -2.4863      4.2085      1.6781
H      1.2248      2.3214      0.2615
C      7.4955      5.2437      0.9691
O      7.6559      7.3491      5.7388
H      8.6480      8.6943     11.3491
H     20.6974      9.9280     13.1562
H      0.5871      3.0648      3.1805
H     -2.4200     11.7860      0.9516
H      2.9375      4.9223     -0.4361
H      4.6251      5.3708      3.9551
C     12.5464      7.6166     11.5490
H      6.8522      4.8886      4.9200
C     15.7193      6.3834     15.6210
H      1.8576      5.8629      8.8528
C     -2.1827      4.8690      5.1369
C      0.3848      6.9544      5.2150
H     17.7083      8.0094     19.8013
H      2.3830      2.2558      4.9844
C      1.3785      5.9914      4.5949
H    -11.1980     11.8710      9.5209
H      1.6731      0.1280      3.0544
H     16.7990     10.8251     15.7734
H      0.1378      7.6818      8.5352
C     -4.1019      6.2257      8.1240
C     -8.7280     13.9722      8.4254
C      6.4556      7.3587      3.0748
C     -3.6057      9.8541      5.3944
C     -0.1071      6.5414      2.7799
C     -1.3686      6.4572      3.7155
H      2.7252      3.6487      0.5630
H      5.0193      4.8024     -1.4418
H     -2.9058      3.2079      6.1991
C    -11.0247     14.4672      9.0189
H     -1.1513      9.4222      7.7618
C      0.6961      5.3696      3.2676
C      5.5710      3.9756      2.7221
H      1.6046      4.8645      7.7298
H     -4.5817      9.6549      7.7576
C      7.2154      3.7310      9.6942
H     -2.4070     12.0571      7.4630
H     -5.6320     10.2175      6.5950
C      2.2319      6.8098      8.6038
C     -2.0011      6.1260      6.1285
C      2.7149      0.2452      2.6519
C      1.2823      4.9601      5.6322
C      1.9895      6.7550      7.1892
C      2.2012      4.1715     -0.1096
H     -1.8091      6.0359      1.4304
H     -3.4662      8.9121      9.8633
H     -5.1939      5.9550      7.8332
H      5.7613      0.9344      3.1655
C     -0.2354      9.3657      4.8105
C     -3.8431      6.9239      9.3542
H      4.3038      5.9652     -0.1780
C     -4.5505     11.8387      7.7574
H     -2.8788      3.3298      2.9114
H     -4.6450      9.4129      5.2213
C     -0.2701      7.4715      7.5657
C      0.4390      3.9239      5.1080
O      7.9428      5.2807      4.5851
C     -1.4681      8.4981      5.4695
C     -6.7457     14.6522      7.4000
C      5.2233      1.9886      6.4053
C      3.4736      0.5793      6.0578
H     -3.4980      5.6814      7.3694
H     -5.7551     14.9996      7.6477
H     -8.3024     16.0045      8.6776
H     -6.5318     12.5373      9.8902
H      0.5800      9.0725      6.3961
H     19.1914     12.5763     17.5088
C      2.0471      5.1570      6.8527
C      4.0353      5.5024      4.8806
C     -9.6542     16.1583      8.8482
H     20.5114     10.3056     14.8289
C      8.3956      6.8007     10.5774
H     -9.8796     16.4336     11.1024
H     11.4737      6.0791     10.8678
C      4.1620      2.8493      4.2922
C     17.9183     10.4392     18.9295
C     -6.3606     12.8629      8.8088
C     -5.5886      9.3813      8.4154
C      5.5649      4.1945      7.8984
C     -7.1873     13.9802      8.5645
H     -0.3090      4.3951      7.4582
H     -3.7295      9.7100     -0.3063
H     10.2217      5.1616     -0.1384
C     14.2163     10.2234     14.2481
H    -10.1467     18.0544      9.7194
H     -1.4830      9.5170      3.1445
