266

C      6.9703      9.1347      1.0264
N     -2.0632     11.0526      1.3981
C      4.0919      1.5602      6.9665
C      2.0181      2.6670      1.9528
C      6.9088      5.0509      1.9749
H      9.0559     -7.7298      3.1556
C      7.1932      3.5988      2.5619
C      3.5564      3.8583      5.5505
C      3.2882      7.1583      6.5501
C      6.2263      1.5362      3.6661
C      5.5968     -4.4507      9.4581
C      1.1466      8.4674      0.9003
N     12.5690    -10.0303      6.3725
C      0.3043      5.5097      0.6060
O     -1.8264      2.5839      1.6643
C      3.3346      4.0239      7.0398
C      2.7664      6.1761      4.5812
C      3.5099     10.3804      3.8160
H      0.6963      0.2442      8.8892
H      9.0494     -9.4204      4.9772
H      4.6564      6.2584      2.8789
C      3.9549      9.0243      3.2877
H      4.5951     -6.0807     10.7171
H      5.8492     -3.9499     10.3958
H      7.9604      3.3952      3.2873
H     -0.2531      7.3714     -2.4113
H     11.8984     -8.0644      6.3817
H      8.5242    -10.2409     10.7232
C      2.7185      2.7938      7.6573
H      7.2640      1.2619      3.7824
O      1.1019     10.7579      1.9920
C      7.9927     -0.3360      8.6786
H      4.8144     -9.7605     10.0582
C      7.0629     -7.0311      9.8173
H      2.7678      0.0119      6.5822
H     15.7263     -5.2747      8.8845
C      5.9693      2.7468      2.5486
H      6.3594     -7.1836      7.4855
H      4.8438     -2.1459      9.1796
H      4.7321     -6.3756      8.9714
C      4.6310     11.0538      4.9076
C     10.2073     -4.4972      5.0934
O     14.7797     -4.0360      4.7315
C     11.3027     -5.1270      7.1519
C      8.5287     -4.7266     11.9868
C      7.5554      7.8574      0.1508
C      6.5205     -5.9116     12.1437
H      4.4798      4.2642      1.9971
H      4.3426     10.0112      1.1329
H      1.7059     -1.0914      2.8374
H      7.7475     -6.1951      8.0654
H      0.1879     11.4742      1.9656
C      7.8299     -9.7083      9.8208
C      7.1183     -6.2700     11.0578
C      7.1991      5.9837      3.0215
H      8.6864      8.1016      2.2307
C     11.9798     -6.1851      5.1459
H      1.5728      0.1515      1.4443
H      2.3976      6.6571      0.4203
C      9.7277     -1.5203      7.1744
C      5.8698     -7.8730      9.5813
O      5.4762     -9.8429     10.8715
C      3.0720      7.5798      5.0441
C      4.5810     -7.0780     12.7477
C      4.6921      9.1498      2.0283
H      9.5372     -5.4017      5.3524
H      8.5037      7.0511      4.0418
H      3.5475      1.0843     10.5932
H      6.3822     -0.7016      9.9584
H      4.5509     12.8567      3.6499
C     12.5066     -9.3050      8.5419
C      0.4774      8.3018     -0.7825
C      1.4374      1.8863      7.5613
H     11.1434     -4.9165      9.3191
C     -0.5098      6.2596      1.4591
H     10.3348     -9.7300      4.0661
C     -2.7201      7.5571     -0.0754
O      2.5325     10.2459      0.1485
C      6.7435     -4.4586      8.6508
C      3.8449      8.4134      7.2588
C      3.2207      1.4204      9.4850
C      2.9793      1.4283      4.6811
H     -1.3916     11.5878      0.8102
H     -2.9748     10.1020     -0.1603
H      6.0080     -0.5389      7.1140
H      3.3767      3.6787     10.9807
C      3.7956      3.3501      3.3654
H      8.3684     -4.0563      6.4403
C     -1.8836      8.5425      0.4667
C     -1.8164      6.9929     -1.0957
H     10.4439     -3.4680      7.5527
C      5.4983      1.8061      4.9522
H      8.3909      0.7276      8.3253
C      2.3227     -0.6082      8.5673
C      4.6846     -1.7590      8.1064
C     11.0149     -7.7737      3.6571
C      3.9263      9.5696      6.3824
C      2.3480      3.7047      3.0211
C      4.7488     -5.6089      9.5786
H      3.3874      7.8848      0.9832
H      9.8120     -9.1668      2.5109
H      1.8225      4.7295     -1.2570
O      5.3971      6.7457      6.4457
C     13.5655     -4.8033      4.5293
H      4.0707     -2.4860      7.4355
C     10.4703     -4.4087      3.6148
C     10.9892     -5.3897      2.9496
H      6.4813     -4.9471      7.6504
C     10.1261     -5.1878      7.6237
H      2.4991      4.1340      5.2109
H      1.3026      8.9852     -2.7655
H     12.4177     -9.3397      9.4958
C      2.9441      2.0207      1.3032
C     13.1063     -4.5221      1.9807
O      7.3782     -8.8107     11.6853
C     -0.6186      3.0402      1.7701
C     13.0346     -9.1045      4.0322
C      7.2352     -2.2406      7.6716
H      9.1305     -5.5953      6.9469
H      2.6434      9.7761      5.8688
H     -0.1125      5.4813     -0.4817
O     13.0502     -3.0879      6.0002
C      6.0859     -1.3119      7.7761
C     13.5221     -5.5569      6.7952
C      2.2572      7.3423      1.1440
H      2.5415      8.4354      3.0984
C     13.6215     -5.1694      3.1471
H      8.8390     -0.3914      9.3157
C      2.5613      0.4733      3.4947
C     12.7976    -10.5119      7.7239
C      9.9994     -2.7965      6.6471
C     10.0731     -9.4542      5.0948
C      5.1792     12.3244      4.6095
C      3.0924      3.8104      9.9557
C      0.5283      2.4299      1.3533
C     -1.1674      7.8474      1.6829
C      3.5849     -0.8205      8.3276
N      1.9335     -0.6210      3.8501
C      3.1923      1.9791     -0.3542
O      3.9626      6.0036      2.2415
C      9.6043     -6.3855     13.7072
H      5.9144     10.0138      5.8477
H     12.0086    -11.4753      7.9205
C     10.0604     -8.1964      2.6219
C     10.0384     -4.9759      8.9838
H      8.4106     -8.7411      9.6185
H      1.2992      1.6340      6.5433
H      7.4652     -7.7488     12.6400
H      8.5061     -3.5059      7.8290
C     -2.2695      9.7875      0.5965
H      5.0786     -7.3837      9.9214
H     14.2348     -5.8592      9.1119
H     12.0409     -3.3261      4.0449
H      1.1123     10.1511     -0.9563
H      2.2078      1.5451     -0.7726
H     12.0091     -8.6042      7.8363
C      2.0552      7.3798      2.5982
H      3.3728      2.5684     -1.2646
H     -1.1105     10.7852      2.0811
C      0.9906      9.2281     -1.6363
H      2.4105     10.3858      4.0266
C      4.3449      8.0686      4.2498
C      7.9425      7.3479      2.9485
C      8.2329      9.7400      1.7386
C      6.0344      8.5531      2.0141
C      4.2131      6.0160      6.4091
C      1.9755      5.1411      2.4173
C      5.7079     -6.5712     13.0366
C      5.6862      7.6716      4.3109
C      8.2980     -6.2733     13.8042
C      4.3303     -8.0514      7.5579
C      1.4908      5.1257      0.9450
H     10.3633     -7.2267      6.1955
C      6.2698      7.0193      5.4048
H      0.2966      1.6056      0.7929
C      7.0684     -7.3086     13.6197
H     12.4036     -9.6036      3.2628
O      7.5852      7.2575      5.8093
H      8.2936     10.7894      1.8549
H      1.8297      3.6465      3.9039
H     12.7198     -3.6105      2.0706
H      3.0972      4.0572      0.1332
H      4.5228      5.1762      4.3478
C     -0.6494      7.4808     -1.3222
C      2.8357      6.2381      3.1185
H     15.2175     -7.1605      8.9195
C     10.9551     -8.1901      4.8962
C     13.3474     -6.0149      5.3441
H      4.8715      8.3973      8.0371
H      2.0788      1.8703      5.2499
C     14.2368     -7.1125      4.8157
H      1.8507     -1.5253      8.6624
H      4.0512     11.0546      3.2598
H     12.4525     -6.5591      8.3717
C      8.2200     -6.6874      8.9440
C      4.2398      0.6721      8.2735
C      6.5050      7.7857      3.0190
C      9.2742     -3.5074      5.6590
C     12.9419     -6.5655      2.9366
C     11.6984     -6.4239      3.6795
H      3.7196     -6.7001     12.0653
H     10.2357     -9.8961      6.1227
C      1.7981      0.8177      8.7852
C     13.5451     -7.6833      3.5415
C      4.8044      3.5106      2.5912
H     14.4199     -7.8605      7.9330
H      7.4982     -5.0597      9.1657
C      6.7383     -9.2366     10.5912
H     10.5710     -0.9054      7.1682
H      7.1506     -2.6432      6.6719
C     15.1367     -6.1615      8.6224
C     11.3859     -7.2885      5.8444
C      2.1749      0.7146      2.0124
C     14.1908     -8.2141      5.8894
C     14.8565     -6.2876      7.1300
C      2.0715      4.2521     -0.2192
H     -1.2103      5.4378      1.7511
H      3.9888      2.0286      1.5203
H      4.0289      1.4767     -0.1429
H      8.6876     -7.4114      8.1357
H      7.4226    -10.1979      8.9929
H     11.0920     -2.8875      6.1927
H      5.8065      0.8050      2.9878
C     12.6129     -3.8432      5.0244
C      9.1109     -5.7826      9.7420
H      4.1408     -7.6349     13.5942
H      8.5899      9.7532      2.7941
C      8.4337     -1.2637      7.5049
H     10.3503     -7.5823      1.6912
H      8.7450     -2.8733      4.9687
H      5.8163      1.5772      9.5096
C     12.4550     -5.6223      7.8172
C     13.3548     -9.3662      5.4804
O      7.3021      5.4568      4.2928
C     11.4573     -4.8052      5.7165
C      6.4349      1.6712      7.3919
C      5.4774      1.8719      6.3508
C      3.3863      0.6170      5.9483
H      8.0864      6.3094      5.6391
H      6.7843      2.6213      7.8606
H      6.3616     -9.1685      7.8684
H      7.8214     -2.8534      9.6232
H      6.1236     12.6930      5.2425
C     14.9765     -7.7649      7.0899
H     -0.6608      4.2141      1.7412
C      3.9485      5.2357      5.1521
C      3.0549      2.9284      9.0162
H      8.9056      9.6629      0.7610
C      8.3723     -5.5344     10.8950
H      3.8027     -7.8477      8.4427
H     -1.9297      6.8255     -2.1226
H      7.4424      1.1566      7.3172
C      4.0589      2.5776      4.5582
C      4.9568     10.0429      5.7495
C      6.6444     -0.4384      8.8719
C      7.7805     -3.3335      8.5815
C      5.6664     -8.1441      8.0327
C      5.7215      1.0227      8.5989
H     13.5193     -9.0337      8.3974
H      1.5916      3.3038     -0.3070
H      6.4222     10.0874      0.5753
H      8.1110     -8.2945     11.1495
H     11.5987     -9.8769      6.6256
C      1.8479      9.7412      0.9752
H      3.1591      4.9466      9.7840
H     10.0451     -3.4785      2.9711
