265

C     19.8877      8.3901     13.6410
N     10.4702     10.7401     14.5266
C      3.7542      1.4484      6.9381
C      2.3173      2.4119      1.9658
C      7.8389      4.8387      2.2804
H     -2.8600      6.5482      2.4170
C      7.7285      3.4948      2.8673
C      3.5623      4.0994      5.1981
C     16.1897      7.0858     19.4894
C      6.3771      1.8241      4.1281
C     -7.4416      8.2452      9.4763
C     13.5851      8.9676     13.8925
N      0.6065      2.7090      5.8063
C      0.3100      5.7096      0.5362
O     -1.3114      2.5026      1.5744
C      3.3811      4.1163      6.6725
H     13.4774      6.7874     12.2796
C     15.7728      6.2525     17.2740
C     16.7822     10.2988     16.7662
H     -2.2024      2.7488      5.1131
H     17.6530      6.7278     14.8598
C     17.3621      9.0375     16.3364
H     -8.4471      6.3075     10.6394
H     -7.6274      8.8840     10.3259
H     -0.9866      5.3036      6.4388
H     -7.3466     14.8359      9.2457
C      2.8930      2.7491      7.3766
H      7.3455      1.4502      4.7193
O     14.3167     10.6678     15.3797
C     -5.1103     12.8918      8.0695
C      6.2997      6.1266      9.6367
H      3.4877     -0.8799      6.1195
H      4.1177      4.9104      8.2793
C      6.5091      2.8492      3.0731
H      6.1713      3.4045      7.7189
H     -8.9721     10.5313      9.1072
H      3.0173      7.0783      9.1671
C     17.3950     10.9252     17.7619
C     -2.7845      8.7561      4.9549
O      2.2109      8.6011      4.7677
C     -1.2586      8.5695      7.0020
C      8.8070      7.8790     11.7449
C     20.6387      7.3836     12.7710
C      6.7081      6.7551     -1.0048
H      5.3204      3.2900      1.3491
H     17.4535      9.5752     14.1179
H      1.6071     -0.7949      5.4443
H     -4.7376      5.5843      8.8692
H     14.9066     10.2360     12.4250
C      7.8133      2.7686      9.0024
H      0.5760      1.1678      1.9242
C      7.2884      6.4584     10.6958
C      8.3385      5.6466      3.2574
H      8.5115      7.5634      1.9715
C     -1.0301      6.9610      4.9809
H     15.3663      8.4955     20.4782
H      3.8530     -0.3926      2.8411
H     14.4642      6.7942     13.9486
C     -3.0996     11.6106      7.2844
C      6.5418      5.0106      8.8191
C     16.0477      7.6075     17.9379
C      4.9470      5.2942     -0.3070
C     17.7831      8.9863     14.8889
H     -3.4355      7.9557      5.1753
H      8.2435      7.8674      3.7202
H     -9.2773     14.5653     10.4746
H     18.5307     12.4600     16.5951
C     -0.4451      3.1935      8.3373
H     21.4381      9.5550     13.5570
C     12.6662      8.9268     12.6176
C      1.6094      2.1313      7.7991
H     11.1289      7.2806     10.6073
C     -0.3884      6.6533      1.3916
H      5.7371      7.2305     -0.8653
H     19.3234      9.1929     12.9195
C     10.2294      7.6048     12.4790
O     15.2310     10.5460     13.3813
C     -6.5632      8.4136      8.4832
C     16.3395      8.5742     20.0840
C     -9.5276     14.6669      9.4836
C      2.3699      1.0390      5.1968
H     11.4921     10.7068     15.0850
H     -7.1551     12.5485      7.1365
H    -11.1559     16.4361      9.8826
C      4.0436      3.4664      2.9792
H     -3.1079      7.5288      6.8004
C     11.0924      8.7166     13.4117
C     11.3256      7.0158     11.6148
H     -1.8901     10.7620      6.2485
C      5.2586      2.2073      4.9942
H     17.1954     13.2733     17.4005
C    -10.5984     12.7297      8.9080
C     -8.4662     11.2798      8.3327
C     -1.8956      4.9762      3.6810
C     16.3643      9.5740     19.1025
C      2.8049      3.7242      2.2198
C     -7.9609      6.7304      9.7086
H     15.3611      8.0700     13.3396
H      9.6135      4.9964      4.5378
H      0.9311      3.3159      0.4178
O      5.7253      6.9478      6.5056
C      0.7148      8.2692      4.6173
H     -8.8999     11.0917      7.2512
C     -2.8605      8.8766      3.3554
C     -2.2371      7.3344      2.8224
H     -6.4848      7.6169      7.8884
H      8.0136      3.4112      4.2196
C     -2.5930      8.2264      7.4962
H      2.3699      3.9411      4.9157
H     12.4501     10.8258     11.3249
H      3.3790      4.2521      0.4861
H      0.0957      3.2495      9.3376
C      3.2013      1.2772      1.9672
C     -0.1559      8.7481      2.2240
O      4.3307      4.0338      0.0673
O      7.6135      4.3142     10.8375
C     -0.1880      3.0759      1.6703
C      0.2718      3.8979      3.9231
C     -5.5280     10.6858      7.4391
H     -3.0914      9.2013      7.7813
H     15.8724     10.2003     18.4375
H     -0.4126     10.2758      4.8060
H     13.1693      8.1394     10.7769
O      0.7383      9.9552      5.9940
C     -6.8930     11.6645      7.7508
C      0.7426      7.1703      6.5990
C     14.7309      7.9840     14.1335
H     16.0390      7.7540     16.1054
C      0.7041      7.8193      3.1921
H     -4.5003     13.3434      8.7949
C      1.9790      0.2532      4.2082
C      0.2887      2.2872      7.3514
C     -3.0295     10.8363      6.2647
C     -2.3039      3.5029      5.7690
C     17.9472     12.4230     17.5868
C    -10.1213     16.9387      9.7523
C      0.8790      2.1304      1.4337
C     -1.3368      7.9947      1.6932
C     -9.2190     12.4910      8.7129
N      1.6347     -0.9094      4.4792
C      3.1810      0.8614      0.4381
O     16.8475      6.1407     14.9174
C      9.7563      6.4173      0.2790
H     18.6632      9.8622     19.1571
H     -0.0577      1.2058      7.3343
C     -2.5623      4.6774      2.5780
C     -2.3864      7.5553      8.7763
H      8.1757      2.0098      8.2577
H      2.0089      1.1924      7.2906
H      6.8243      4.0358     11.3433
H     -4.7953      8.4590      7.9415
C     10.4381      9.8956     13.4634
H     -8.4944      6.4202      8.8688
H      1.4760      7.4760      9.0278
H     -0.5965      9.8049      2.5468
H     13.7363     11.0046     12.2565
H      4.2832      0.6770     -0.0526
H     -1.4052      2.8977      8.4472
C     15.0088      7.6299     15.6387
H      2.3935      0.1136      0.4803
C     13.1305     10.2553     11.7900
H      2.1965     -1.3025      3.7143
C      4.4616      7.9063      4.2067
C      7.8904      7.2329      2.8822
C     20.5692      9.4982     14.0905
C     18.7897      8.0484     14.7228
C      4.4667      6.1536      6.4492
C      1.9460      5.0754      2.3522
C      6.4574      5.5867      0.0522
C      5.5837      7.0727      3.9845
C      8.4322      6.3277      0.6058
C      4.4941      4.7939      7.3552
C      1.5902      5.1212      0.5966
H     -2.2527      5.8317      7.0410
C      6.5438      6.8333      5.2217
H      1.2471      2.2319      5.0653
H     -2.9584      5.0149      1.6750
H      0.8993      2.0057      0.3543
C      7.2825      5.6141      1.1785
H     -0.8630      3.9827      3.2430
O      7.6903      7.0045      5.5128
H      8.6783      8.9115     10.9317
H     19.9049     10.3618     13.9335
H      1.1501      3.0168      3.5763
H      9.8717     11.5624     14.5637
H      1.3534      4.1163     -1.1179
H      4.7983      5.2558      4.0252
C     12.7343      7.7095     11.7195
C     15.7778      6.0274     15.8052
H      1.7342      5.7354      8.8243
C     -2.2341      4.6915      5.1822
C      0.3534      7.0274      5.1785
H     17.3313      8.3132     20.6805
C      1.3367      5.8899      4.7868
H    -11.4811     12.1277      9.1926
H      2.2843     -0.8730      2.2580
H     16.5501     10.6255     15.6409
H      0.0604      7.7219      8.5051
C     -4.1207      5.9824      8.1989
C     -8.6693     13.8622      8.4256
C      6.4515      7.3978      2.8931
C     -3.7410      9.7192      5.6582
C     -0.0376      6.3329      2.8958
C     -1.4258      6.3186      3.6862
H      2.7667      3.2264     -0.2851
H      4.6300      5.6523     -1.3962
H     -1.7051      3.4249      6.6323
C    -11.0307     14.2757      9.1993
H     -0.5344      9.5288      6.9661
C      0.8279      5.1232      3.5370
C      5.1309      3.2536      2.4929
H      1.8132      4.1627      7.9268
H     -6.0020      8.8795      6.8654
C      7.4198      3.9091      9.4125
H     -2.3510     12.1830      7.8283
H     -6.1397     10.1709      6.5079
C      2.1361      6.6725      8.5888
C     -1.8975      5.7300      5.9462
C      2.7420      0.0448      2.7359
C      0.9573      4.7809      5.9169
C      2.0151      6.5126      7.1226
C      1.6681      3.8371     -0.1624
H     -1.2686      5.9955      1.4806
H      4.0145      1.6134      2.9079
H     -2.7219      8.2990      9.3985
H      2.9094      1.8461     -0.0283
H     -4.4908      6.4035      7.3306
H      6.0504      0.8763      3.4021
C     -0.1488      9.3496      5.1654
C     -3.7358      6.9158      9.2081
H      4.7081      6.4013      0.3586
H     -3.9391      8.8641      2.9634
C     -4.4204     11.6755      7.7431
H     -3.2758      3.9236      2.3987
H     -4.5499      9.1027      6.1763
C     -0.0733      7.8132      7.4195
C      0.1340      3.8707      5.3415
O      8.5536      5.3102      4.5546
C     -1.3522      8.5421      5.4642
C     -6.9731     14.5806      7.2487
C      4.9880      1.5753      6.2636
C      2.9495      0.2743      6.2693
H     -5.6824     13.6321      7.2978
H     -8.3743     16.3284      8.4503
H      1.0361     10.8915      5.9789
H     18.6866     12.2169     18.4000
C      2.0288      4.9687      7.0220
H     -0.0910      4.1363      1.5757
C      4.1196      5.4289      4.8358
C     -9.4540     15.9898      8.7890
H     -0.4001      5.0451     -0.3872
C      8.5203      6.9541     10.5487
H     -9.8155     17.2372     10.8595
H     11.2140      5.9295     11.5182
C      4.0081      2.8752      4.4281
C     17.6493     10.2342     19.0880
C     -6.2988     12.9015      8.7613
C     -5.5065      9.3074      7.8331
C      5.9396      4.3953      7.6289
C     -7.1884     14.0871      8.5098
H      9.5847      9.6899     12.7571
H     10.4079      5.6225      0.4803
C     14.3254     10.1587     14.2884
H    -10.2897     17.7505      8.9190
H     -1.8061      9.5339      3.4282
