264

C     20.2024      8.8278     14.0663
N     -1.5269     10.5802      1.3384
C      3.8958      1.4126      7.0284
C      2.0540      2.5492      1.5522
C      7.2927      5.1437      2.5872
H     -2.1014      3.6372      2.3088
C      7.1717      3.8672      3.1001
C      3.6363      4.0242      5.6606
C     -6.4913      9.9880     10.9135
C     15.9447      7.2458     19.4528
C      6.0308      1.7370      3.9512
C     -7.1731      8.8129     10.0858
C     13.8066      8.8238     13.6375
N     -0.0053      2.5779      6.1909
C      0.4018      5.6603      0.6173
O     -1.5600      2.7575      1.5099
C      3.2122      4.1866      7.1193
C     15.5827      6.0584     17.4180
C     16.6031     10.2880     16.9406
H    -11.7726     13.7232      9.5661
H     -3.3424      3.4887      4.0027
H     17.7031      5.6909     15.2965
H     -6.9248     11.2971     12.3155
C     17.0347      9.0038     16.5598
H     -8.7715      7.8771     11.3917
H     -6.3723     10.5832      9.9139
H      7.9054      3.8828      4.0793
H     13.0827      7.4401     10.4821
H     -0.3053      5.1197      6.4116
C      2.9216      2.6220      7.8113
H      6.9716      1.2508      3.7631
O     14.6194     10.4050     15.2181
C     -4.8114     12.7772      8.7989
C      6.6938      6.0066      9.8455
H      1.6384      7.7572      9.4485
C      6.2297      2.9661      2.8441
H      6.0458      4.6603      7.7515
H     -5.4569      9.7232     11.5305
H     -7.5089     10.9382      9.4027
H     -8.4478      7.0596      9.6096
C     17.6078     10.8944     17.7978
C     -2.7711      8.3726      5.1175
O      1.9456      8.4601      4.9252
C     -1.4992      8.0385      7.4325
C      8.8079      7.8008     12.0304
C     20.6266      7.6387     13.1064
C      6.5132      7.3369     -0.5556
H      4.9959      4.1386      1.5420
H     16.9827      9.7718     14.9950
H      1.4534     -0.6982      3.0696
H     -5.2649      5.5516      8.2060
H     13.8691     10.2359     15.7456
C      7.0688      6.5120     11.1849
C      7.7929      6.0170      3.7139
H      8.3207      6.9124      1.8211
C     -1.1237      6.4963      5.3599
H     16.0647      8.3995     21.5090
H      2.7521     -0.4607      1.2507
H     -7.3528     11.9696     11.3401
H     15.1668      7.3158     13.1480
C     -3.1963     11.5900      7.5725
C      5.6637      4.9813      9.8720
C     15.7893      7.3713     17.9821
C      4.4444      6.2495      0.2449
C     17.8011      9.1982     15.4263
H     -3.2990      7.2647      5.4708
H      8.6331      7.9750      3.8868
H     -9.8622     13.8225     10.4096
H     -6.2334     12.2164     10.0342
C     -0.1433      3.6478      8.2977
C     13.6211      8.6229     12.2591
C      1.6858      1.7521      7.6205
H     -2.2393      7.6772      9.8392
C     -0.4415      6.3818      1.6484
H      5.6503      8.0507     -0.9556
H     -2.1502      2.3459      5.0196
H     -8.4243     10.8287     11.4154
C     10.2866      7.3380     12.7335
O     14.2503     11.2019     13.2906
C     -6.6944      8.7717      8.6185
C     16.4282      8.2544     20.3977
C     -9.8094     14.0955      9.4370
C      2.7864      1.6150      4.9980
H     -0.6556     11.1017      0.8476
H     -2.8834      9.9700     -0.0923
H     -6.9990     12.4243      6.8755
H    -10.3379     16.4626     11.2243
C      3.7195      3.3799      3.2269
H     -4.4675      9.4398      6.3420
C     -1.9430      8.2621      0.7866
C     11.4061      7.1462     11.7692
H     -1.6645     10.3151      6.7462
C      5.0892      2.2018      5.0222
H     -4.3488     13.6104      8.4123
C    -10.3798     12.1654      7.9992
C     -8.1065     11.2452      8.4112
C     -2.0594      5.2027      3.7315
C     16.4440      9.5130     19.3923
C      2.3443      3.5024      2.5935
C     -8.2872      7.9322     10.3510
H     16.2284      8.1670     13.8681
H     -3.4242      4.3357      2.5853
H      1.9721      3.8793     -0.3406
O      5.9230      6.5657      6.8256
C      0.6536      8.0205      4.5801
H     -8.4275     10.2026      8.0838
C     -2.7172      8.4730      3.6665
C     -1.8591      7.4717      3.0675
H     -7.1717      9.0628      7.7030
C     -2.8788      7.9193      7.9074
H     14.3743      8.8544     10.4947
H      6.2006      2.1490      1.9852
H      0.0580      4.6130      8.6058
C      3.1429      1.8502      0.8499
C     -0.0810      8.5616      2.1329
C     -0.3584      3.1378      1.5686
C     -0.0156      3.8930      4.1829
C     -5.7079     10.9132      7.5198
H     -3.8428      7.7160      7.5350
H     15.5400     10.4086     18.9745
H      0.5752      6.1447     -0.3594
O      0.1722      9.7380      5.8999
C     -6.8323     11.8870      7.8736
C      0.6274      7.1557      7.0015
C     15.1665      7.9309     14.1341
H     15.3368      8.0973     16.0848
C      0.5556      7.6529      3.1484
H     -4.2892     12.5180      9.6182
C      3.1097      0.3145      3.1356
C      0.3074      2.4630      7.6740
C     -2.5778     10.7581      6.4027
C     -2.6211      3.3092      5.0854
C     17.9220     12.2219     17.3965
C     -9.8695     16.6134     10.0911
C      0.9071      2.3741      0.9934
C     -1.0627      7.6213      1.7815
C     -9.0601     12.3200      8.3859
N      2.2310     -0.4290      3.7365
H      3.3945      1.5470     -1.5292
C      2.6751      1.7631     -0.7724
O     16.8973      6.4806     15.7623
C      9.5416      6.0825      0.5321
H     18.5372      9.8344     19.2116
H     -0.5721      1.6313      8.1234
C     -2.4570      4.6761      2.3952
C     -3.1256      7.6235      9.2948
H      1.7007      1.2763      6.5327
H      7.0579      4.2538      0.6972
H     -4.9179      9.0709      7.7058
C     -2.0582      9.5562      0.4692
H      4.7517      5.0305     10.4317
H      0.8980      6.0241      9.2206
H     -0.9467      9.5196      4.0645
H     14.7303     10.1235     11.4138
H      1.9484      2.5577     -1.0577
H     -0.4475      3.3348      9.2679
C     14.8583      7.3587     15.5579
H     -1.7937     10.6123      2.3656
C     14.5486      9.1901     11.5231
C     -7.4651     10.8923     11.5010
H     15.5692     10.3605     17.3166
C      4.1641      7.8628      4.4161
C      7.7103      7.3824      3.5348
C     21.4105      8.9203     14.8980
C     19.0164      8.5604     14.9473
C      4.6392      5.9395      6.4176
C      1.8869      4.9668      2.4052
C      5.7447      6.3022      0.3893
C      5.4890      7.3587      4.3766
C      8.0951      6.3681      0.9840
C      4.2064      5.0766      7.6067
C      1.6508      5.2513      1.0488
H     -2.3646      5.4733      6.5460
C      6.4915      7.1266      5.7525
H      9.7559      5.2700     -0.2710
H      0.7024      1.7731      0.1299
C      6.8244      5.3800      0.9767
H     -0.0850      2.9765      3.4779
O      7.6574      7.2068      5.7924
H      9.0052      8.8174     11.7170
H     22.2196      8.1772     14.8035
H      1.6923      2.9369      3.6536
H     -0.1037      9.6207      2.6380
H      3.3310      5.0511     -0.3631
H      4.8918      5.3623      4.3464
C     12.5582      7.6789     11.5159
C     15.6644      6.0265     15.8156
H      2.7788      6.1706      9.5079
C     -1.5544      4.3181      4.6856
C      0.3653      6.8051      5.4365
H     17.4464      7.9497     20.6626
H      1.8522      1.5717      4.6904
C      1.3303      5.8132      5.0136
H    -11.1683     11.1930      7.8555
H      1.6266      0.3983      1.5745
H     16.4704     10.7861     16.0613
H      0.0754      7.8628      8.9061
C     -5.4258      6.3985      8.7897
C     -8.5614     13.8030      8.5278
C      6.2656      7.7649      3.2120
C     -3.5040      9.5528      5.6644
C      0.0132      6.2215      3.1855
C     -1.3519      6.4086      3.9507
H      4.2985      7.1236     -0.7858
H     -3.1615      3.9596      5.8703
C    -11.0468     13.5153      8.7698
C      0.7696      5.1699      3.6628
C      4.8798      3.7421      2.6479
H      1.7047      4.3495      8.2487
H     -5.9797      7.6279      8.5909
H     -2.5108     12.1200      8.2624
H     -5.6344     10.7063      6.4366
C      1.7530      6.6023      8.9828
C     -1.3640      5.1275      5.9295
C      2.7340      0.5519      1.8024
C      1.2151      4.6123      5.8605
C      1.7576      6.4364      7.5585
C      2.4964      4.4987      0.2580
H      4.1518      2.2499      1.2268
H      2.0086      1.0465     -0.6508
H     -1.9698     11.4922      5.8117
H      5.5658      0.9393      3.3491
C     -0.5834      8.9456      5.0251
C     -4.2550      7.0064      9.6761
H      3.7655      6.2600      1.0257
C     -4.5109     11.6533      7.7908
H     10.0309      6.1523      1.4458
H     -4.2345      9.8725      4.9068
H     -6.3930     14.7738      9.2083
C     -0.1921      7.7906      7.8630
C      0.6240      3.5023      5.3496
O      8.9335      5.3260      4.3954
C     -1.5533      8.0875      5.8270
C     -6.5817     14.6438      7.4056
C      5.2316      1.9355      6.4523
C      3.2395      0.6515      5.9207
H      8.8769      5.7097      5.5299
H     -5.6587     15.5047      7.1201
H      5.1365      3.2167      8.6961
H     -5.0933      9.4054      9.4014
H     -0.0027      9.2522      6.8333
H     18.5860     12.8111     18.1611
C      1.8872      4.9578      7.3266
H     -0.3722      4.0750      2.2117
C      4.0718      5.3043      5.0799
C     -9.6933     15.5696      9.2133
H     20.9625      9.3212     15.7808
C      8.3773      6.8480     11.0704
H      3.8576      5.6089      8.4253
H     11.1406      6.7580     10.9657
C      3.7611      2.5529      4.6899
C     17.6042     10.0818     18.8576
C     -6.3108     12.8249      8.9767
C     -5.4378      9.5066      8.4286
C      5.2513      4.3545      8.3125
C     -7.0501     14.1724      8.6729
H     -1.2478      3.7239      7.7213
H      3.1904      3.8741      0.8826
H     20.0245      9.7332     13.3510
H      7.1395      5.3342     11.5616
H     -0.9277      3.1392      6.3614
C     14.3917     10.2357     13.9661
H    -10.2618     17.6504      9.5457
H     -3.1677      9.3718      3.4113
