268

C     19.7202      9.0700     13.8905
N     -1.9639     10.7670      1.6386
C      3.8673      1.7060      7.1846
C      2.2660      2.9040      1.4528
C      7.3991      4.8916      2.1265
H     -3.1391      6.0141      1.9863
C      7.1377      3.6982      2.7648
C      3.2421      4.0343      5.3198
C     16.1336      7.0196     19.6258
C      5.8167      1.5925      3.8234
C     -7.2871      8.0960      9.5401
C     13.7916      8.7345     13.7123
N     -0.2694      2.6607      6.4538
C      0.6437      6.1258      0.8100
O     -1.4142      2.7912      1.3311
C      3.1393      3.9420      6.8313
C     15.5949      6.1017     17.4260
C     16.1704     10.3630     16.4085
H    -11.4448     13.6840      9.9397
H     -3.8068      3.6681      5.3567
H     17.3580      6.8476     15.2503
C     16.8166      8.8693     16.2400
H     -9.2613      7.1065      9.6968
H     -7.4467      8.4580     10.4200
H      8.0825      3.6895      3.2518
H     13.2485      7.5953     10.5574
H     -1.3067      5.0270      6.3060
H      8.9724      3.5413      9.5093
C      2.9023      2.6112      7.6415
H      6.2240      0.6746      4.0232
O     13.9598     10.5637     15.2748
C     -4.8675     12.1864      8.5671
C      7.0806      5.9684      9.6499
H      2.3102      0.0451      5.8388
H      2.4768      6.0402      9.3358
C      6.1804      3.0193      3.1651
H      6.7535      5.0272      7.2714
H     -8.0078     10.9025      9.5779
H     -8.1874      7.0599      8.3093
C     17.2711     11.0261     17.5354
C     -3.0305      8.3488      5.0709
O      2.1137      8.3711      5.0830
C     -1.4271      8.2101      7.1547
C      8.8447      8.5203     12.0526
C     20.4028      8.1369     13.0326
C      6.4977      7.3352     -0.8874
H      4.7611      3.6875      1.5096
H     17.5946     10.0836     14.5467
H      2.3403     -1.3566      3.8325
H     -4.3664      6.2579      7.8312
C      7.8931      3.3812      9.5717
C      7.4382      6.6703     11.0659
C      7.9944      5.8464      3.1818
H      7.6283      7.5137      2.3470
C     -1.2476      6.7303      5.0706
H     16.3117      9.0341     21.3390
H      2.6267     -0.2622      1.7326
H     15.4502      7.3949     13.1772
C     -3.1918     11.4240      6.9159
C      6.0977      5.0461      9.4384
O      5.8944      2.6725     10.5952
C     15.9436      7.4631     18.0943
C      4.5858      5.5744     -0.4258
C     17.5642      9.0857     15.0740
H     -3.4944      7.3252      5.1638
H      8.1853      8.3366      3.9748
H     -9.0664     14.0194     10.4871
H     -6.8832     12.2222      9.9476
H     17.5080     12.9017     17.2655
C      0.2585      3.6585      8.7402
C     13.1769      8.7805     12.3087
C      1.6086      1.7845      7.6362
H     -2.4569      8.5703      9.8344
C     -0.6557      6.2701      1.4063
H      6.1375      8.0465     -1.8616
H     -2.4759      2.6097      4.6912
C     10.1400      7.6466     12.3601
O     15.3507     10.4102     13.5264
C     -6.6931      8.6075      8.3939
C     16.5710      8.4595     20.3858
C     -9.6314     14.2601      9.5168
C      2.9263      1.5888      4.8919
H     -3.0248     10.7328      1.8971
H     -2.2429     10.1839     -0.3401
H     -7.4854     12.1744      7.1516
H     -9.2599     16.7713     11.0924
C      3.8807      3.4334      3.2593
H     -3.8286      8.9718      6.7446
C     -2.2712      8.5490      0.5980
C     11.2619      7.2191     11.5336
H     -1.5490     10.2530      6.5501
C      5.2102      2.2793      5.0791
H      3.9123      0.1277      5.6667
C    -10.4206     12.2258      8.6525
C     -8.1003     11.1148      8.5351
C     -2.3564      5.2557      3.4042
C     16.4460      9.3447     19.2193
C      2.4170      3.6167      2.6585
C     -8.2276      6.7891      9.4760
H     15.9208      8.6735     13.9563
H      8.3832      4.5862      1.8550
H      2.3896      5.5641     -0.8378
O      5.3797      6.6399      6.6638
C      0.7641      7.9704      4.4584
H     -8.6548     10.4401      7.8649
C     -2.7367      8.6698      3.6375
C     -2.0841      7.6349      2.9160
H     -6.9191      7.8485      7.7184
C     -2.6816      7.8513      7.6262
H      2.3091      4.2103      4.9757
H     13.7781      9.4909     10.2987
H      4.8610      3.7882     -0.9367
H      0.1754      4.5992      8.2981
C      3.0367      1.6265      1.6729
C     -0.2840      8.5259      1.9750
O      4.7858      4.2781     -0.1615
O      6.9842      4.0963     11.8088
C     -0.3288      3.2246      1.5926
C     -0.5145      3.9021      4.2354
C     -5.7504     10.6476      7.1772
H     -3.3626      7.5511      7.1298
H     15.3886      9.5530     19.4033
H      0.4596      6.4210     -0.2924
O      0.3973      9.6796      5.7935
C     -6.8965     11.4659      7.7129
C      0.6073      7.0487      6.6552
C     15.0887      7.8679     14.0071
H     15.3478      8.2333     16.0812
C      0.5457      7.5400      2.9255
H     -4.0153     12.4869      9.2422
C      2.3169      0.6083      3.8318
C      0.1995      2.4913      7.7961
C     -2.5430     10.3450      5.9784
C     -2.8135      3.3710      5.4062
C     17.8434     12.1008     17.4976
C     -9.7373     16.6874     10.0560
C      0.8435      2.7102      0.8506
C     -1.3781      7.6732      1.4684
C     -9.0945     12.2264      8.4469
N      2.1576     -0.6237      4.4232
C      3.9837      1.5165      0.6401
O     16.8052      6.0365     15.0593
C      9.2667      6.5970     13.0653
H     17.9599      9.2014     19.0419
H     -0.6249      1.7231      8.1125
C     -2.6663      5.0697      2.1329
C     -2.9357      8.1392      8.9418
H      8.0131      3.6764      8.4826
H      1.5148      1.3345      6.5942
H      7.4991      4.8957     11.9699
C     -1.9333      9.9070      0.5302
H     -7.9262      5.8061      9.6921
H      2.2967      7.8912      8.9341
H     -0.5573      9.5914      4.1290
H     14.0734     10.5212     11.8797
H      3.8401      0.7847     -0.1175
H      1.0116      3.2215      9.5388
C     15.0073      7.4801     15.3610
H      4.1100      2.5871      0.1419
H     -1.0783     11.3822      1.8796
C     13.5621      9.6661     11.4446
H      4.8971      2.6105     10.7192
H     15.5933      9.7607     17.0255
C      4.2215      7.8861      4.3092
C      7.4939      7.4515      3.3129
C     21.1479      9.5448     14.7804
C     18.7936      8.4477     14.8661
C      4.1263      5.9570      6.5829
C      1.9499      4.9501      2.5286
C      5.8633      6.1415      0.1687
C      5.5422      7.3787      4.2986
C      8.1001      6.9020     13.6314
C      4.3704      4.6210      7.4887
C      1.5590      5.1873      1.1072
H     -2.7143      6.1744      6.2597
C      6.2060      6.6460      5.4650
H      9.7029      5.7991     13.3181
H      0.4104      1.7922      0.8601
C      6.9076      5.7563      0.9398
H     -0.7339      3.2151      3.4443
H      9.0349      9.5235     11.8959
H     22.0781      9.9853     14.3999
H      1.8361      2.7803      3.0705
H     -0.8704      9.2349      2.4014
H      2.8553      3.7977      0.1566
H      4.7499      5.2061      4.5552
C     12.5986      7.4872     11.5095
H      6.0820      5.7579      4.8352
C     15.6516      6.2313     15.9020
H      0.8354      6.4716      9.3493
C     -2.0441      4.5109      4.6675
C      0.3493      6.7953      5.1994
H     17.7696      8.2842     20.6307
H      2.0628      2.0243      5.4845
C      1.1749      5.6981      4.7807
H    -10.9278     11.2135      8.8343
H      1.2756      0.9125      1.7772
H     16.2292     10.9152     15.5937
H      0.5142      7.8461      8.3574
C     -4.7416      6.4892      8.9122
C     -8.6232     13.5973      8.5156
C      6.1090      7.5086      2.9341
C     -3.7088      9.4020      5.6976
C     -0.2166      6.2527      3.0071
C     -1.5249      6.4059      3.7072
H      4.8456      5.9626     -1.3769
H     -2.2591      3.4673      6.2795
C    -10.9374     13.5231      8.9131
C      0.6639      5.1169      3.4789
C      4.9705      3.5109      2.5108
H      1.6189      4.6895      8.2366
H     -4.6783      8.5692      7.8225
C      6.7806      3.9078     10.5489
H     -2.3608     12.3557      7.0954
H     -6.0106     10.3932      6.1628
C      1.7947      6.6808      8.7443
C     -1.8846      5.6021      5.7824
C      2.2288      0.5569      2.3607
C      0.8127      4.7437      5.9790
C      1.9820      6.4534      7.2275
C      1.9517      4.5935     -0.2133
H     -1.4539      5.4155      0.8781
H      3.2912      2.1754      2.6103
H      5.0753      1.4088      0.9337
H      7.9754      2.2533      9.4879
H     -2.4958     10.8230      4.9455
H      4.7005      1.5689      3.6204
C     -0.2105      8.9732      4.8223
C     -3.9405      7.5140      9.5220
H      3.7387      6.0164     -0.0675
H     20.5805      9.6132     15.8139
C     -4.5146     11.3745      7.5062
H     -2.8367      4.0898      1.7288
H     -4.4939      9.7849      4.9465
H     -6.7959     14.6046      9.3501
C     -0.1015      7.7684      7.5369
C      0.1293      3.5020      5.5178
O      8.7128      5.3313      4.0567
C     -1.5566      8.2793      5.3890
C     -6.5078     14.1411      7.2060
C      5.3345      1.9382      6.4672
C      3.2798      0.8099      6.0199
H     -5.8278     15.2353      7.0626
H      6.4333      3.5576      7.6189
H      0.9927     10.5838      5.5871
H     18.4050     12.1744     18.4718
C      1.8254      4.8780      7.1599
H     -0.5201      4.2345      2.2779
C      3.9822      5.3482      5.0699
C     -9.7589     15.7046      9.1163
H     21.5581      8.6333     15.2071
C      8.3544      7.8269     10.6802
H      4.0294      5.0128      8.6036
H     11.0079      6.3989     10.7830
H     -5.9032     13.2387      6.8374
C      3.8565      2.9926      4.6381
C     17.5090      9.8514     18.6131
C     -6.3323     12.2260      8.8955
C     -5.4660      9.4700      8.2202
C      6.0482      4.4962      7.8200
C     -6.9255     13.6378      8.5340
H     -0.7876      3.6530      9.2635
H      1.0279      3.9780     -0.8200
H     19.1118      9.7548     13.3132
H     -1.0343      2.1202      6.2553
C     14.3687      9.8855     14.1964
H    -10.5012     17.2217      9.7872
H     -2.5549      9.8188      3.3468
