267

C      7.1632     -4.0372      1.1708
N     10.9762     10.9083      1.4859
C      4.0616      1.7260      7.1030
C      2.0183      2.5603      1.6112
C      7.3518      5.3134      2.3768
H      9.8563      6.8079      2.4758
C      7.0325      4.1641      3.2192
C      3.2347      3.8570      5.3735
C      3.0198      7.0015      6.5906
C      5.8567     14.8730      3.8076
C      6.0266      7.8903      9.4671
C     13.8202      8.8642      0.7412
N     -0.4199     15.6043      6.5191
C     13.3021      5.9055      0.4866
O     -1.5361      2.5854      0.9629
C      2.9841      3.7737      6.9436
H     11.3924     11.8908      1.2743
C      2.7888      6.0943      4.5070
C      3.3039     -2.6551      3.6825
H      1.1272     13.6138      9.7097
H     -3.7071      4.1891      4.5736
H     17.3942      6.7018      2.1950
C      4.0106     -4.0628      3.3950
H      4.0232      7.6072      9.4843
H      6.3007      8.4941     10.3566
H      8.0596      4.1699      3.7122
H     12.7897      7.2851     -2.0339
H     -1.6263      5.4611      6.7366
H      8.3840      4.0782      9.7869
C      3.0287      2.4834      7.5680
H      6.6024     14.0982      3.6963
O     13.6371     11.3477      1.8520
C      8.3137     12.6241      8.1084
C      7.1414      5.9392      9.7522
H      2.8304      0.3924      6.6529
H      3.0739      6.3397      8.9343
C      6.1001      3.2090      3.1000
H      6.0477      4.7632      7.3956
H      5.0009     11.3110      9.8600
H      4.7605      6.6998      8.4517
C      4.0768     -2.0560      4.7472
C     10.0472      8.3571      4.9640
O     14.8727      8.5554      5.0805
C     11.5388      7.9259      7.2313
C      8.7078      8.2096     12.1966
C      7.3722     -4.9993     -0.1263
C      6.4209      7.0612     12.2147
H      4.6797      3.4944      1.4432
H      4.9749     -2.9408      2.0590
H      1.6861     -1.3808      3.4843
H      7.6631      7.0179      7.8919
C      7.9433      3.2188      9.5595
C      7.3624      6.4594     11.1447
C      8.1637      6.1489      3.4190
H      8.6784      7.0982     14.8096
C     -1.0679      6.7214      5.1765
H      3.0463      8.4536      8.1701
H      2.3974     -0.6576      2.1557
H     15.3665      6.5911      0.4921
C      9.8136     11.6630      6.8950
C      6.2149      4.8365      9.5272
O      5.7068      2.7371     10.4552
C      2.9919      7.4604      5.1271
C      4.6606      5.2336     12.3927
C      4.8044     -4.1562      2.2554
H      9.7364      7.0624      4.8858
H      8.0145      8.1554      4.6890
H      3.1349     14.3233     10.6992
H      4.3572     -0.2648      3.7522
C      0.2076     16.2912      8.7157
C     13.1744      8.8376     -0.7272
C      1.6671     14.5690      7.5489
H     10.9095      8.3112      9.8199
C     12.2999      6.4117      1.4329
H      5.5049      7.3725     11.8629
C      9.8419      7.7208     12.6894
O     15.4806     10.4443      0.3478
C      6.0233      8.8427      8.3747
C      3.5238      8.1979      7.1076
C      3.3125     14.2202      9.6367
C      2.8235      1.6993      4.9638
H     11.2903     10.6853      2.4519
H      9.6732     10.0743      0.0534
H      4.0517     16.1675     10.9468
C      3.5636      3.1830      3.0794
H      9.4147      8.7440      6.7319
C     10.7941      8.4488      0.6468
C     10.9376      7.1077     -1.1471
H     11.4078     10.8363      5.8859
C      4.9893     15.2091      4.9807
H      3.9433      0.0292      5.4020
C      2.5172     12.3219      8.4246
C      4.9994     11.1638      8.5785
C     -1.9670      5.0654      3.2556
C      3.4954      9.8720      6.6053
C      2.1734      3.4270      2.7320
C      4.9668      6.8850      9.6136
H     16.2460      7.7364      0.7342
H      7.9351      4.9380      1.7256
H     14.9934      4.9575     -1.0823
O      5.3316      6.5837      6.6634
C     13.6277      7.9358      4.6090
H      4.7141     10.0256      8.4878
C     10.6169      8.5937      3.3492
C     10.9227      7.4975      2.6211
H      5.8774      8.1912      7.5509
C     10.1042      7.9208      7.6068
H      2.0728      4.1451      5.0177
H     13.8558      9.2060     -2.5753
H      5.5162      3.1271     12.0775
H     -0.0566     17.4292      8.3302
C      3.1412      1.5281      1.5166
C     12.9868      8.7047      1.9814
O      4.8317      3.8370     12.5933
O      7.1487      4.1830     11.7105
C     -0.4840      2.9183      1.5326
C     -0.3906      3.9643      4.1601
C      7.1567     10.7454      7.2626
H      9.5350      6.8789      7.5242
H      2.4988     10.3038      6.3493
H     13.2627      5.9981     -0.7084
O     12.9610      9.9115      5.9065
C      6.1735     11.5471      7.7876
C      0.7144      6.9468      6.8164
C     15.1917      7.9096      0.8765
H     15.5610      7.8945      3.2964
C     13.5433      7.6022      3.1698
H      8.8726     13.2818      8.6998
C      2.4423      0.7003      3.9434
C      0.2208     15.2224      7.7220
C     10.4299     10.6845      6.1822
C     -3.0833      3.4189      5.0975
C      4.6009     -0.7582      4.6337
C      3.7823     16.5419     10.1088
C      0.7400      2.1410      1.3256
C     11.7707      7.7633      1.5820
C      3.8075     12.2863      8.1573
N      2.1663     -0.5199      4.3978
C      3.6911      1.4359      0.0732
O     16.7792      5.8779      2.0887
C      9.2526      6.1922     12.8243
H      5.5212      9.4699      6.1712
H     -0.4189     14.6159      8.2949
C     -2.4848      4.7941      2.1165
C     10.0479      8.0654      8.9893
H      7.8942      3.2372      8.4306
H      1.2591     13.8535      6.7630
H      6.2433      4.1967     12.0676
H      7.7967     10.1622      9.4129
C     10.7113      9.9204      0.4359
H      4.8656      6.2963     10.4569
H      1.5693      7.5154      9.0242
H     11.9031      9.6120      4.1212
H     14.4049     10.1394     -0.9928
H      3.8144      0.3897     -0.3642
H      1.3013     16.3743      8.8354
C     14.9182      7.6692      2.5208
H      3.2777      2.2510     -0.4375
C     13.8223      9.4550     -1.5342
H      5.9292      1.8667     10.8582
H      2.2789     -2.7275      4.0790
C      4.2910      8.1680      4.5483
C      7.8558      7.4477      3.5201
C      8.4845     -3.7215      2.0237
C      6.1771     -4.5652      2.1776
C      4.1643      5.6646      6.5073
C      1.5236      4.7665      2.5875
C      5.8605      6.0832     13.1673
C      5.4991      7.4456      4.3203
C      7.9907      6.8560     13.8023
C      4.0747      4.6436      7.5892
C     14.2222      5.1444      1.1576
H     -2.8719      6.1040      5.9158
C      6.0912      6.8825      5.5073
H      0.6962      1.1812      0.4780
C      6.8088      6.0415     14.1600
H     -0.8997      2.9738      4.1546
O      7.4176      6.7767      6.4899
H      8.5005      9.3707     11.9400
H      8.4928     -2.6339      2.5590
H      1.8130      2.8170      3.4882
H     12.8078      9.5468      2.5463
H     15.8008      3.9556     -0.1293
H      4.5381      4.9206      4.0627
C     12.2634      7.5897     -1.1492
H      5.9733      5.9236      4.9497
C     15.4076      5.9955      3.0385
H      1.5427      6.1435      9.8163
C     -1.8297      4.3741      4.5901
C      0.3840      6.6378      5.4048
H      4.6412      7.9853      7.0931
H      1.8154      2.1660      5.2653
C      1.1929     18.4893      4.8987
H      1.8154     11.3008      8.5444
H      1.2707      1.0880      2.6602
H      3.2507     -2.0830      2.6614
H     13.0863      7.8279      8.5542
C      8.1346      6.6159      8.8634
C      4.3718     13.6829      8.5813
C      6.3745      7.4743      3.2946
C      9.4871      9.4140      5.7869
C     12.9022      6.3299      2.8956
C     -1.3690      6.4080      3.5996
H      4.3587      5.6629     11.3737
H     -2.9091      3.4091      6.1345
C      1.9894     13.7174      8.8658
C      0.5328      5.0984      3.7677
C      4.8167      3.6427      2.5368
H      1.3322     17.2865      7.9321
H      8.3245      8.8995      8.4377
C      6.6523      3.6917     10.3609
H     10.6914     12.3165      6.8119
H      6.8791     10.2013      6.3114
C      2.0140      6.5852      8.7620
C     -1.8389      5.5405      5.6333
C      2.2062      0.5023      2.4644
C      1.0148     17.5329      6.0874
C      1.8753      6.2731      7.3891
C     14.9146      4.4584      0.0068
H      4.0488      1.4539      2.2525
H      4.6747      1.8273      0.5763
H      8.8425      5.9287      8.3246
H      8.7423      2.3376      9.7884
H      5.1367     14.1921      3.2841
C     12.5206      8.9638      5.0374
C      8.8839      7.6890      9.6731
H      4.1154      5.4279     13.4609
H      9.5829      9.0010      2.6375
C      8.5412     11.6695      7.3022
H     -2.6994      3.9909      1.3169
H      8.4680      9.7011      5.4473
H      6.5901     14.4999      9.1319
C     12.7832      7.9303      7.4778
C     -0.1392     16.7459      5.7769
O      8.7628      5.4555      4.3938
C     11.3795      8.1071      5.5353
C      6.3724     14.5008      7.1465
C      5.2292     15.1025      6.3314
C      3.5236      0.8845      6.0608
H      8.1887      7.3309      6.3111
H      7.0438     15.2118      7.3058
H      5.7673      3.2158      8.5608
H     14.0437      9.7797      6.2200
H      5.4461     -0.4112      5.2106
C      1.8075     17.7588      7.2584
H     -0.6073      3.8283      1.9612
C      3.8183      5.0657      4.8634
C      3.1751     15.6339      9.2185
H      9.3316     -3.3694      1.4857
C      8.3233      7.5145     10.7829
H      3.2364      5.0552      8.4654
H     10.8099      6.4125     -2.2036
H      6.4744     13.5854      6.7642
C      3.6290      2.7043      4.5651
C      4.5582      9.9947      5.8538
C      6.8234     12.6106      8.6311
C      7.4093      9.5081      8.5768
C      5.4308      4.2677      8.1236
C      5.8355     13.8013      8.6117
H     -0.3351     16.2688      9.5381
H     14.4832      3.5620      0.3281
H      6.9434     -3.0791      0.8237
H      9.1093      6.0737     11.8292
H     -1.3285     15.1857      6.1378
C     14.4696     10.5027      0.9801
H      3.8736     17.6954      9.9096
H     10.8249      9.6892      3.0892
