264

C     19.9591      8.9976     13.9774
C      4.0102      1.6819      7.1632
C      2.1764      2.7414      1.2535
C      7.1256      4.8945      2.4706
H     -2.9753      3.1561      3.0240
C      7.3815      3.4810      2.9192
C      3.1513      3.9528      5.3054
C     -6.0127     10.0815     10.3517
C     16.2793      7.1680     19.5656
C      5.9121      1.8736      3.9953
C     -6.8824      9.3601      9.4536
C     13.9045      8.8511     13.7484
N     -0.1076      2.9459      6.2719
C      0.6853      6.0753      0.5159
O     -1.5446      2.2642      1.5131
C      3.0847      4.0089      6.7328
C     15.5469      6.2485     17.5037
C     16.7051     10.2662     16.6608
H    -11.6859     13.4988      9.6517
H     -3.6319      3.4123      5.2306
H     16.5724      7.1996     15.9198
H     -7.0442     10.6644     12.2911
C     17.2300      8.9585     16.2993
H     -8.1433      8.7238     11.2513
H     -5.2612     10.9114     10.0519
H      8.1016      3.5042      3.6888
H     12.8704      7.0423     10.7426
H     -1.2023      5.1339      6.3092
C      3.0096      2.7096      7.5976
H      6.9786      1.6477      4.3957
O     15.2324     10.3817     14.8710
C     -4.7895     12.7604      8.5325
C      6.6295      6.0579      9.8842
H      2.4276     -0.0045      6.3025
H      3.1617      6.2830      9.5947
C      6.2001      2.8245      3.0580
H      6.1860      5.0449      7.4883
H     -5.6197      9.3149     10.7374
H     -7.5845     10.9935      9.4093
H     -8.0167      7.5600      9.6469
C     17.6319     10.8490     17.7551
C     -2.8214      8.9320      5.2651
O      2.1464      8.8836      4.9329
C     -1.4161      7.7943      7.2125
C      8.4841      7.9175     12.1904
C     20.2907      7.7441     13.0881
C      6.2916      7.1965     -0.6571
H      5.2047      4.5239      2.2437
H     17.3691      9.5945     14.1512
H      1.5774     -0.9041      2.9926
H     -4.6803      6.0534      8.1886
H     15.4323      9.7854     15.8077
C      7.1048      6.4535     11.1313
C      7.5765      5.7448      3.7460
H      7.7229      6.9474      1.8109
C     -1.0775      6.6927      5.0110
H     15.1169      8.3249     20.6130
H      3.9622      0.1097      2.5421
H     -6.9742     11.8087     11.2370
H     15.0867      6.9787     13.4194
C     -2.8257     11.5315      7.9728
C      5.5123      5.2564      9.5614
C     15.9233      7.6626     17.9366
C      4.4299      6.0758      0.7054
C     17.9127      9.0846     15.0259
H     -3.7139      8.3706      5.6498
H      8.4758      7.6579      3.6415
H     -9.4378     14.3279     10.5144
H     -6.4262     11.9194      9.5102
H     17.7149     12.5972     16.8096
C      0.0928      3.9016      8.7629
C     13.5208      8.6189     12.2659
C      1.7850      1.8750      7.7444
H     -2.0120      6.9703     10.0117
C     -0.6097      6.4066      1.3995
H      5.5805      7.8863     -0.9769
H     -2.6283      2.6336      4.5926
H     -7.9327     10.5182     11.2465
C     10.0457      7.2613     12.6569
O     14.3695     11.2598     13.0926
C     -6.4400      8.9249      8.2327
C     16.2660      8.4717     20.2535
C     -9.5648     14.3484      9.4326
C      2.8283      1.3759      4.6886
H     -2.1106     10.7341     -0.9639
H     -7.6826     12.1390      6.8377
H     -9.5939     16.4529     11.1191
C      3.7530      3.4523      3.3230
H     -4.0496     10.3390      5.7802
C     -2.1110      8.7770      0.4133
C     11.1922      6.9132     11.9212
H     -2.8874      9.7341      7.6573
C      5.1035      2.3426      5.1288
H      3.5636     -0.6343      5.6863
H     -4.2953     13.2690      7.6651
C    -10.2859     12.3903      8.1690
C     -8.0230     10.9899      8.3442
C     -2.4635      5.1336      3.5882
C     16.7046      9.7841     19.4931
C      2.1563      3.5888      2.7286
C     -7.7859      8.5544     10.1535
H     16.1467      8.3927     14.0169
H     -3.1002      4.4640      1.7234
H      1.9594      3.7298     -0.8301
O      6.0035      6.2691      6.4279
C      0.7053      8.0899      4.4922
H     -8.6067     10.2727      7.8768
C     -2.6613      8.7887      3.5947
C     -2.4246      7.6740      2.8531
H     -7.4656      9.0277      7.4861
C     -2.5948      7.6003      7.8923
H      2.2856      3.7761      4.7879
H     14.3354      8.6818     10.5336
H      6.3827      2.0619      2.1172
H      0.5408      4.2186      9.5400
C      3.0126      1.6270      1.2008
C     -0.2470      8.3840      1.9392
C     -0.6474      2.9746      1.3147
C     -0.2025      3.9087      4.1844
C     -5.5341     10.9751      7.1420
H     -3.2740      7.4897      7.0144
H      0.5067      6.2650     -0.6197
O      0.2419      9.4236      6.3257
C     -6.9589     11.6857      7.6306
C      0.9799      7.2283      6.8870
C     15.1020      7.9195     14.0195
C      0.4049      7.6696      3.0184
H     -4.0758     12.7983      9.5940
C      2.5693      0.5405      3.6579
C      0.5167      2.6149      7.9632
C     -2.1965     10.4814      7.2746
C     -2.6882      3.2622      5.4166
C     18.1176     12.0499     17.7355
C     -9.5699     16.6674      9.9840
C      0.6957      2.6455      0.7347
C     -1.6603      7.7704      1.5670
C     -8.9706     12.3643      8.3265
N      1.6775     -0.5312      3.8661
H      3.7074      0.2405     -0.3995
C      3.0385      1.0937     -0.3292
O     16.8741      6.3468     15.5254
C      9.4810      6.2327      0.5431
H     18.8048      8.8333     18.4830
H      0.1649      1.7086      8.2426
C     -3.0298      4.1634      2.8662
C     -2.8478      7.5579      9.1682
H      1.5690      1.2155      6.8845
H      6.9389      4.4780      0.1749
H     -4.2562      9.2742      7.6608
C     -2.5720      9.7680     -0.5283
H      4.4642      5.5037      9.6980
H      2.0745      7.6327      9.3963
H     -0.9436      9.5933      4.2618
H     15.3148      8.7537     11.5842
H      3.2391      2.1306     -0.5608
H     -0.5971      3.6997      9.5390
C     15.0024      7.5211     15.2986
C     14.4029      9.1565     11.4298
C     -6.8900     10.7541     11.2818
H     15.6808     10.2274     17.3549
C      4.5796      7.9431      4.3122
C      7.5658      7.0418      3.1981
C     21.1276      9.3343     14.7809
C     19.0400      8.4258     14.9888
C      4.3820      6.0140      6.1751
C      1.7619      5.0611      2.5750
C      5.7388      6.3072      0.3501
C      5.8431      7.5937      4.4603
C      7.9550      6.6012      0.8165
C      4.1776      4.8806      7.3475
C      1.5618      5.2015      1.0207
H     -2.6708      6.2780      6.2942
C      6.7140      6.9233      5.5688
H      9.2441      5.4691     -0.4597
C      7.0480      5.3009      1.0596
H     -1.2240      3.5137      3.7255
O      7.7842      7.3624      6.1749
H      8.6475      9.0002     12.0279
H      1.4566      3.2089      3.7021
H     -0.4771      9.4277      2.2085
H      3.1708      4.5422      0.5925
H      4.3823      4.9913      4.1250
C     12.4373      7.8404     11.5987
C     15.6083      6.0187     15.9155
H      1.5715      6.5396      9.7545
C     -2.0395      4.5321      4.8763
C      0.5210      7.0763      5.3870
H     16.7542      8.5303     21.2775
H      1.8051      1.8824      4.4059
C      1.1585      5.8468      4.8814
H      2.5024     -0.1219      1.8117
H     16.8998     10.8735     15.7544
H     -0.2635      6.9669      8.7600
C     -5.0081      6.1760      9.0819
C     -8.4049     13.6726      8.4274
C      6.3537      7.6868      3.1765
C     -2.9362     10.4018      5.5960
C     -0.4691      6.3301      2.9013
C     -1.6719      6.3818      3.6843
H      3.8151      6.5514     -0.0529
H     -2.5267      3.2033      6.3735
C    -10.7557     13.6939      8.9774
C      0.6021      5.1734      3.5671
C      4.9279      3.5295      2.6185
H      1.3071      4.6264      8.0747
H     -6.1786      7.7962      7.9183
H     -2.5930     12.6638      8.2518
H     -5.8525     10.8714      6.0020
C      2.3092      6.6502      9.1232
C     -1.8110      5.6656      5.8314
C      3.1474      0.5180      2.2121
C      1.1390      4.9032      6.1059
C      1.9473      6.6430      7.5879
C      2.2435      4.0377      0.4307
H     -1.4240      5.7255      0.6369
H      3.8021      2.5643      1.5223
H      2.0160      0.5902      0.0417
H     -1.1347     10.1782      6.9680
H      5.4739      0.8763      3.7619
C     -0.4751      9.0778      5.3169
C     -4.1385      7.2793      9.6485
H      4.4923      4.9113      1.0612
H     21.6667     10.0834     14.2584
C     -4.2277     11.6734      7.6357
H      9.8803      5.7100      1.3388
H     -2.8390     11.4465      4.8380
H     -6.4915     14.3191      9.5947
C     -0.1407      7.3752      7.6880
C      0.3432      3.8775      5.4503
O      8.5630      5.2590      4.6526
C     -1.6487      8.0934      5.7792
C     -6.5973     14.4531      7.2038
C      5.2583      2.1455      6.4914
C      3.3573      0.5855      5.8779
H      9.1395      5.9180      4.8460
H     -5.6357     14.5475      7.2736
H      5.0394      3.5947      8.4934
H     -4.9465      9.7491      8.7293
H      1.0843     10.0963      6.0474
H     19.0298     12.3364     18.2749
H    -10.5968     11.3163      8.4765
C      1.8720      5.1847      7.3826
H     -0.8237      4.1960      1.5485
C      3.8060      5.4400      4.9723
C     -9.6683     15.7089      9.0560
H     21.7520      8.2504     14.7480
C      8.4519      7.1954     10.9946
H      3.7684      5.4278      7.9885
H     11.2791      5.6627     11.6768
H     -6.2196     13.4596      6.7530
C      3.7370      2.7044      4.6487
C     17.9083      9.6301     18.8220
C     -6.3034     12.6192      8.7004
C     -5.3375      9.6157      7.7073
C      5.4114      4.6492      8.1489
C     -6.9839     13.9011      8.5961
H      0.0941      4.9951      8.3914
H      0.3006      2.9818     -0.2429
H     19.2730      9.7687     13.2582
H      7.6828      5.5606     11.8968
H     -0.9593      2.5531      6.4533
C     14.5084     10.1503     13.8485
H    -10.1453     17.5807      9.8323
H     -2.6428      9.9528      3.2881
