260

C     19.8452      8.6673     13.9454
C      3.9249      1.6295      7.1178
C      2.1620      2.9688      1.1160
C      7.1332      4.8330      2.4951
H     -3.1215      3.4601      3.4370
C      7.2605      3.3244      2.8601
C      3.7877      4.1811      5.5992
C     -6.1580      9.4897     10.7410
C     16.2305      7.2275     19.4362
C      5.7510      1.6089      3.7452
C     -6.9809      8.9952      9.5882
C     13.5855      8.5512     13.6775
N      0.2240      2.8997      6.4402
C      0.2002      5.9161      0.5817
O     -1.3683      2.6520      1.4757
C      3.4925      4.0159      6.9011
C     15.6761      6.1737     17.3942
C     16.7964     10.6880     16.8907
H     -2.9088      4.0935      5.0539
H     17.0757      6.6598     14.6252
H     -6.7751     11.4020     11.1268
C     16.9605      9.3138     16.2515
H     -5.3200     10.1147     10.1939
H      7.9233      3.5217      3.8374
H     12.0158      7.2670     10.5318
H     -0.8673      5.1656      6.5306
C      3.1058      2.9583      7.6376
H     -2.2784     10.0023     -0.8945
H      6.2118      0.6827      3.6890
O     14.8470     10.7442     14.7560
C     -5.0174     12.5832      8.6596
C      7.0917      6.1201      9.5281
H      2.5829      6.8310      9.3026
C      6.1212      2.4843      2.5511
H      6.6878      4.6637      7.2551
H     -5.6759      8.6911     11.2270
H     -7.9103     10.4321      9.1021
H     -7.3129      7.6292     10.7282
C     17.8139     10.8824     17.7408
C     -2.6284      8.4010      4.8521
O      1.8798      8.6352      4.8706
C     -1.6547      7.9517      6.8905
C      8.7441      7.8388     12.1692
C     20.4879      7.6382     13.0267
C      6.4939      6.9046     -0.7177
H      5.0759      3.7398      1.4354
H     17.5810      9.7060     14.3503
H      2.0178     -0.7512      2.7955
H     -5.1880      6.3254      7.4768
C      7.0696      6.6956     10.8163
C      7.7129      5.6774      3.3008
H     21.7990      8.4185     14.4907
C     -0.9815      6.5583      4.8899
H     15.0935      8.6443     20.5086
H     -7.9712      9.9930     10.9152
H     15.1945      7.1886     12.9975
C     -3.2453     11.3420      8.0260
C      5.8794      5.3984      9.1123
C     16.0364      7.5950     17.9187
C      4.5683      5.9285      0.4288
C     18.0672      9.3214     15.3254
H     -3.6116      7.7217      5.3945
H      8.7777      7.1606      3.0240
H     -9.1648     14.1970     10.4304
H     -6.7520     12.2649      9.7206
H     17.7055     12.5985     17.0919
C      0.0296      3.7042      8.8895
C     13.1164      8.5075     12.1614
C      1.7806      2.0359      7.8081
C     -0.7294      6.1927      1.4243
H      5.4990      7.1409     -1.0895
H     -2.6734      2.3169      5.1238
H     -7.2169     10.5415     12.4929
C     10.0204      7.3292     12.7568
O     13.7719     10.6205     12.7621
C     -6.6217      9.1762      8.3638
C     16.1605      8.5615     20.2247
C     -9.7505     14.6426      9.4107
C      2.5739      2.1335      4.4866
H     -6.9790     12.2226      6.4680
C      3.9245      3.5047      2.9820
H     -3.6126      9.0147      5.6304
C     -2.0977      8.3106      0.4984
C     11.1143      6.8469     11.8601
H     -1.4660      9.9236      7.8514
C      5.1100      2.2070      4.9698
H      3.9002     -0.2369      5.6023
H     -4.4832     13.4001      8.6974
C    -10.2399     12.2781      9.1400
C     -7.9940     11.2198      8.3700
C     -2.0140      5.1950      3.4455
C     16.7214      9.8370     19.5845
C      2.6237      3.5928      2.5407
C     -8.0088      7.8463      9.9301
H     15.6153      8.8868     14.6194
H     -3.3412      4.4650      2.0112
H      1.3772      3.6644     -0.4399
O      5.6114      6.8538      6.5798
C      0.6547      8.1493      4.3443
C     -2.6428      8.7067      3.4354
C     -2.0895      7.7449      2.6410
H     -7.3668      8.8149      7.7853
C     -2.6708      7.5637      7.5761
H      2.5388      1.8889      5.5085
H     14.2330      8.5087     10.1411
H      6.2021      1.6669      1.5082
H      1.0885      3.7288      8.9946
C      3.1519      1.7948      0.9675
C     -0.2646      8.6227      1.9104
C     -0.3295      3.2805      1.4859
C     -0.0173      4.0814      4.3522
C     -5.6550     10.9393      7.2862
H      2.4012     -0.7814      4.3133
H     -3.4145      7.1554      6.9557
H     16.0903     10.5759     19.0308
H      0.0672      6.5138     -0.6215
O      0.1309      9.3486      6.1671
C     -6.9968     11.7414      7.5990
C      0.5485      7.1159      6.9215
C     15.0565      7.8841     13.9489
C      0.5498      7.5740      2.8350
H     -5.0397     11.9278      9.5719
C      2.6993      1.0239      3.5252
C      0.2778      2.6247      7.7764
C     -2.3424     10.5594      7.0418
C     -2.3155      3.3420      5.3827
C     18.2429     12.2357     17.9783
C     -9.6747     17.1158      9.9002
C      0.8617      2.5075      1.3149
C     -1.1885      7.6292      1.3794
C     -8.8421     12.3857      8.6618
N      2.0544     -0.1497      3.8377
H      4.0204      1.7612     -0.7765
C      2.9649      1.4810     -0.5289
O     16.9658      6.5500     15.6330
C      9.5443      6.3318      0.8958
H     18.8462      9.2317     18.6791
H     -0.2516      1.6947      8.4011
C     -2.8151      4.3358      2.9072
C     -2.6404      7.6868      9.0829
H      1.7199      1.5075      7.0061
H      7.5016      4.5708      0.3668
H     -5.8145      9.1870      6.5735
C     -1.7973      9.5951     -0.0820
H      5.2785      6.4273      9.1332
H      1.3988      8.1468      8.8517
H     -1.0014      9.6484      4.3520
H     14.9265      9.0099     11.5019
H      2.5120      2.0844     -1.3636
H     -0.6749      3.3646      9.6402
C     14.8751      7.5847     15.4614
H      5.4368      4.8733      9.8198
C     14.1145      8.5093     11.2371
C     -6.9961     10.5112     11.4753
H     15.7001     10.4258     17.3377
C      4.4593      8.4273      4.4009
C      7.9320      7.0321      2.5714
C     21.0061      9.2545     14.4846
C     19.0857      8.3558     15.0510
C      4.4318      6.2712      6.2963
C      1.8891      5.0310      2.5560
C      5.9194      5.7178      0.1529
C      5.7763      7.5120      4.1665
C      8.0624      6.4641      1.1360
C      4.3800      5.0281      7.5142
C      1.2776      5.2050      0.9969
H     -2.6673      5.1080      5.7294
C      6.3514      6.9980      5.4112
H      9.4137      5.5870     -0.0597
H      1.1659      2.0879      2.2948
C      7.1026      5.3234      1.0030
H      0.1021      3.1829      3.8844
H     -1.8299      6.8415      9.4540
O      7.5528      7.0474      5.6183
H      8.8542      8.9408     11.8071
H      2.0319      3.1408      3.3900
H     -0.3957      9.4664      2.6780
H      2.4459      4.7993     -0.7228
H      4.9466      5.2183      3.7573
C     12.0852      7.6284     11.4968
C     15.6136      6.2300     15.8779
H      1.0907      6.7947      9.6904
C     -1.4000      4.3496      4.7219
C      0.6284      6.9961      5.2605
H     -9.0125      7.7159      9.9651
H      2.1344      0.3854      6.3305
C      1.4341      5.8230      4.7803
H      2.6157     -0.3767      1.6086
H     16.7299     11.5716     16.0642
H     -0.4299      7.9405      8.7862
C     -4.9689      6.6218      8.6524
C     -8.6147     13.8075      8.5251
C      6.4588      7.5389      3.0263
C     -2.8630      9.8882      5.8174
C     -0.2494      6.2446      2.7777
C     -1.4893      6.3711      3.5105
H     16.8049      8.2872     21.0974
H      4.6739      6.5783     -0.3939
H     -2.4802      3.2806      6.5665
C    -10.9065     13.8727      9.0974
C      0.6414      5.2307      3.5898
C      4.9789      3.3980      2.3220
H      1.8243      4.7373      8.1840
H     -4.5754      8.4308      9.3731
H     -2.8875     12.2324      8.4107
H     -5.4335     11.1551      6.2123
C      1.7346      7.1800      8.8181
C     -1.5232      5.3554      5.6263
C      3.2241      0.7525      2.1613
C      1.2237      4.9148      6.0631
C      1.8858      6.7834      7.3471
C      2.0645      4.3119      0.2400
H     -1.4429      5.0952      1.4966
H      4.0102      2.2517      0.8935
H      3.2519      0.5109     -1.1417
H     -1.4395     11.1505      7.1218
H      4.6780      1.5917      3.4309
C     -0.4691      8.8405      5.1190
C     -4.0382      7.4426      9.5702
H      3.7313      5.2734      0.5850
H     21.7151      9.5360     13.5096
C     -4.5947     11.6250      7.7434
H     10.2396      6.2826      1.5413
H     -2.3167     10.6390      5.0569
H     -6.2402     14.7138      9.2162
C     -0.4815      7.9220      7.6933
C      0.5784      3.7485      5.5809
O      8.4497      5.3449      4.3367
C     -1.4134      7.9341      5.4809
C     -6.4879     14.4150      7.1799
C      5.1545      1.8668      6.2262
C      3.3451      0.2899      6.3773
H      7.8998      6.0164      4.7561
H     -5.9406     15.2874      7.4328
H      5.6112      3.6082      8.3213
H     -4.4224      9.2605      7.7836
H      0.9011     10.2372      5.9242
H     19.1345     12.6700     18.1944
H    -10.8055     11.3390      8.8299
C      1.1735      5.4427      7.4376
H     -0.3865      4.0766      2.1589
C      4.1756      5.4221      4.7442
C     -9.6346     16.0970      9.0584
C      8.3908      7.2501     10.9048
H      3.9551      5.2646      8.5389
H     10.8230      6.5194     10.7489
H     -6.0710     13.5221      6.8239
C      3.8178      2.9801      4.3734
C     17.7689      9.6034     18.6703
C     -6.4825     12.7520      8.7342
C     -5.4878      9.4394      7.7037
C      5.7125      4.5397      7.9134
C     -7.0301     14.0753      8.5276
H     -0.3239      4.7746      8.8056
H     -2.1935      8.5495      9.2187
H      0.8056      1.5778      0.3184
H     19.4863      9.8177     13.4550
H     -0.1995      2.0753      6.0239
C     14.1636     10.0326     13.7385
H    -10.4192     17.8246      9.6056
