262

C     19.7040      8.4867     13.3889
N     -2.8388     10.5018      1.9355
C      4.1147      1.4791      6.9724
C      2.4246      2.4442      1.8423
C      7.6406      4.7037      1.7132
H     -3.1895      6.8423      2.1420
C      7.5769      3.2981      2.1538
C      3.4172      4.0127      5.3707
C     16.3524      7.1567     19.4529
C      6.5628      1.9050      4.1070
C     -6.9220      8.3742      8.5512
C     13.6664      8.7035     13.9832
N      0.2109      3.0730      6.2761
C      0.8553      6.1958      0.6251
O     -1.1814      3.0246      2.1336
C      3.2387      4.0211      7.0057
H     13.5652      7.1839     11.4430
C     15.7119      6.3245     17.2803
C     16.9166     10.2187     16.1575
H     -1.8941      2.5893      6.4312
H     17.7849      6.7379     14.6951
C     17.0690      8.8656     15.8403
H     -8.0517      7.4382      9.9521
H    -11.2515     16.6859      9.7763
H     -1.3055      6.2970      7.1684
H     -6.8849     14.3802      9.2844
C      3.1422      2.7303      7.8317
H      7.5067      1.8895      4.4900
O     14.3127     10.6537     15.3550
C     -5.4204     12.0417      9.4313
C      6.6525      6.0128      9.3856
H      2.3468      0.0058      6.2483
H      4.0097      5.6375      8.1854
C      6.4858      2.8868      2.9326
H      5.5299      3.0670      7.9646
H     -9.3423     12.1411      9.4691
H      2.0686      8.2073      8.7942
C     17.2543     10.8121     17.2601
C     -2.8421      8.7548      5.1985
O      2.2175      8.7026      4.6633
C     -1.1884      8.2630      7.0813
C      8.8920      8.0471     11.9131
C     20.5759      7.4470     12.7000
C      6.4365      6.7149     -1.0651
H      5.1304      3.3869      1.3918
H     17.4674      9.6533     14.2970
H      1.7397     -1.2898      5.5259
C      7.8978      3.2336      8.7125
H      0.5218      1.1374      2.4976
C      7.3865      6.4364     10.6587
C      7.9520      5.5056      2.6959
H      8.3288      7.5485      2.0450
C     -0.9538      6.8843      5.3179
H     16.2672      8.4056     21.2141
H     16.9037     10.9368     15.1722
H      2.9900      5.2555      0.6298
C     -3.6565     11.2964      7.5819
C      6.0352      4.7977      9.1985
C     16.0600      7.6708     17.8510
C      4.5936      5.2461     -0.3693
C     17.7754      8.6721     14.7655
H     -3.3164      7.9151      5.8437
H      8.0066      7.0209      3.7446
H     -9.5841     13.4347     10.2189
H     -7.9289     10.5269      9.3611
H     -2.2011      2.4921      2.5307
H     17.7768     12.6134     16.3444
C     -0.4207      3.1797      8.5267
H     19.4047     10.5932     13.4003
C     13.4371      8.8733     12.3854
C      1.6348      2.2111      8.1021
H     10.7740      6.5624     10.8886
C     -0.5916      6.3596      1.6236
H      5.6243      7.3672     -1.3640
H     -3.2483      3.3767      4.8657
H     18.7628      8.9341     12.6746
C     10.1728      7.4072     12.7386
O     15.7308     10.2272     13.7693
C     -5.9192      8.5289      7.6431
C     16.9444      8.5349     20.4082
C     -9.5452     14.3420      9.4834
C      2.5081      0.9483      4.6410
H     -3.1479     11.2133      0.8218
H     -6.8853     12.9116      6.5777
H      3.3340      6.8001      9.3194
C      4.1016      3.4330      3.2296
C     -2.2879      8.3458      0.8298
C     11.3232      7.1758     11.8233
C      5.3506      2.1956      5.1107
H     17.7563     12.7531     18.1201
C    -10.9897     12.5640      8.6519
C     -8.8547     11.4366      7.5723
C     -1.9153      4.9758      4.2754
C     16.7652      9.7603     19.4305
C      2.8631      3.6698      2.4540
C     -7.3800      7.1765      9.2246
H    -11.1150     11.7243      9.4112
H     15.5843      7.6635     13.1253
H      8.0112      5.7346      4.5011
H      1.5279      2.9647     -0.0415
O      5.6576      6.5663      6.2413
C      0.8985      8.2914      4.5171
C     -2.7453      8.3414      3.7174
C     -2.3195      7.1272      2.9894
H     -4.9286     10.1351      9.1236
H      8.5439      3.2976      2.6001
C     -2.3968      8.6107      7.7948
H      2.4173      4.0154      4.9629
H      0.2378      3.7073      9.1260
C      3.3068      1.2161      1.8003
C     -0.1516      8.4645      2.4141
O      4.1793      4.0099      0.0514
O      7.1735      3.7097     10.9063
C      0.0837      3.0610      1.8807
C      0.4523      4.0915      3.9447
C     -6.2877     10.8528      7.6108
H     15.6848      9.6569     19.3296
H     -0.6809     10.0316      4.1706
H     12.6458      8.1168     10.3310
C     -7.5141     11.1517      8.5718
C      1.1110      7.2933      6.7864
C     14.6079      7.5331     13.7798
C      0.7210      7.7141      3.2165
H     -5.0390     12.8491      8.9396
C      1.9757     -0.0051      3.7415
C      0.4410      2.4749      7.4833
C     -2.9970     11.1715      6.3700
C     -2.6361      3.3697      5.9696
C     17.9208     12.0051     17.2585
C    -10.1887     16.6539     10.0114
C      1.0113      1.9796      1.7730
C     -1.3659      7.7283      1.9125
C     -9.5053     12.3499      8.5815
N      1.9858     -1.1980      4.4576
C      3.9483      1.1136      0.4775
O     17.1017      5.9127     14.9601
C      9.5718      6.2136      0.6309
H     18.7221      9.0517     18.6717
C     -2.7063      4.6607      3.1929
C     -2.7096      8.5054      9.0917
H      8.0665      4.0552      7.9679
H      1.9655      1.5254      6.3851
H      8.0542      3.4908     11.1347
H     -5.2328      9.7927      6.0890
C     -3.0587      9.4382      1.0781
H     -8.0676      6.5431      8.6423
H      1.5456      6.7014      9.5504
H     -0.3277      9.6227      2.6033
H     13.4347      9.9427     10.8019
H      3.5125      0.1414      0.0683
H     -1.5048      2.9162      8.5834
C     15.1234      7.3221     15.0723
H      3.0534      1.6298      0.0864
C     14.0859      9.7218     11.5700
H      7.9242      5.7583     11.2552
H      1.4115     -1.6141      3.9817
C      4.4943      7.9902      4.1254
C      7.8110      6.8937      2.7884
C     20.1642     10.0607     13.9511
C     19.0238      7.8350     14.4245
C      4.2347      6.0264      6.2452
C      2.0118      4.9795      2.4855
C      6.0503      5.6242     -0.1531
C      5.6036      7.0955      3.7251
C      8.2126      6.2607      0.4640
H     14.7482     10.4259     12.0058
C      4.4535      4.9435      7.2658
C      1.7589      5.1334      1.0513
H     -3.3628      9.0780      7.1922
C      6.3368      6.8050      5.0256
H      1.8454      1.7869      4.8885
H     -2.7065      4.8864      2.2018
C      7.3027      5.1565      0.4438
H     -0.4367      3.6532      3.8329
O      7.6565      7.1238      5.4475
H      8.8389      9.2214     12.0788
H     19.9241      9.7925     15.1449
H      0.8653      3.2513      3.3960
H      0.5457      3.9165      0.1220
H      4.4994      5.7501      4.0164
C     12.6539      7.8095     11.5760
H      6.6000      4.3926      7.3094
C     15.8274      6.2126     15.8590
C     -1.8298      4.6812      5.7488
C      0.5484      7.0563      5.2505
H     -7.5365      9.3332      8.9710
H      3.4137      1.2046      4.0802
C      1.3465      5.9862      4.8458
H    -11.5457     12.0234      7.7373
H      2.0232     -0.5478      1.4615
H     14.4149     10.1883     16.2329
H     -1.8744      7.8977      9.4812
C     -4.8477      7.5886      8.0313
C     -8.7356     13.7127      8.3185
C      6.4418      7.3102      2.6480
C     -3.2934     10.1598      5.2828
C     -0.0202      6.4320      3.0587
C     -1.5814      6.3175      3.9853
H     -3.1017     11.9993      8.3466
H      1.8176      4.3131     -0.8950
H      4.6988      5.3582     -1.5206
H     -3.5468      3.3449      6.3156
C    -10.9311     14.0730      8.9355
H     -1.8621     11.2923      6.4975
C      0.8409      5.4202      3.5822
C      5.2241      3.2202      2.4354
H      1.4731      4.6167      8.2421
H     18.1193      8.0318     20.3162
C      7.0974      3.7282      9.6126
H     -6.7502     11.3547      6.8595
C      2.3550      6.9684      8.8100
C     -1.0881      5.5973      6.4664
C      2.4223     -0.0682      2.3685
C      1.1006      5.0270      5.9178
C      2.2152      6.5679      7.4757
C      1.5417      3.9875     -0.0458
H     -1.2748      5.6488      1.8783
H      4.3322      0.8986      2.1771
H     -2.6682      9.4195      9.7423
H      4.6029      1.5997      0.0515
H     -4.3527      7.3480      6.9743
H      8.9104      2.8823      9.0304
H     -2.7533     10.6912      4.5600
C     -0.1835      9.1573      4.7863
C     -3.9915      7.8158      9.2163
H     -3.5203      8.7245      2.7788
C     -5.0477     11.0189      8.4221
H     -3.1185      3.5893      3.1579
H     -4.3415     10.4031      4.7762
C      0.0892      7.8596      7.7305
C      0.8900      3.8061      5.2865
O      7.8280      4.8830      3.9135
C     -1.3298      8.4492      5.5716
C     -6.6811     13.6967      7.2952
C      5.4151      1.7020      6.5181
C      2.7954      0.9759      6.1147
H     -5.8044     14.1248      7.1666
H     -8.1914     16.1810      9.2764
H     -5.3070     12.0900     10.3995
H     19.0399     11.6666     17.3043
H      0.1324      7.6756      8.6498
C      1.8890      4.8517      7.1324
H      0.5181      4.1514      2.0077
C      3.8816      5.4746      5.0477
C     -9.2849     15.8417      9.2362
H     21.0972      9.9468     13.7250
H      0.5496      6.4712     -0.3373
C      8.4875      7.8603     10.5197
H    -10.1422     16.4746     11.0369
H     11.8672      6.2026     12.4140
C      4.0732      2.9890      4.5933
C     17.7135      9.6507     18.3718
C     -6.8411     12.1663      9.4725
C     -5.7609      9.6621      6.9256
C      5.6139      4.2258      7.9743
C     -7.4454     13.3514      8.7369
H     -0.8708      4.0327      8.1412
H     -7.3981     11.9891     10.3472
H      9.8967      5.1847      0.9061
C     14.6351      9.9811     14.2484
H    -10.0621     17.6248      9.4646
H     -2.1221      9.0639      3.2728
