268

C     19.4889      8.9485     13.8555
C      4.2240      1.4000      6.8655
C      2.7251      3.1041      0.8691
C      7.0213      5.0744      2.6205
H     -3.3715      3.6527      2.2407
C      7.4288      3.5753      2.2037
C      3.0442      3.9111      5.3106
C      6.6824      9.9675     11.1353
C     15.8410      7.0654     19.5938
C      6.1094      2.5326      4.0207
C      5.9903      8.7372     10.4620
C     13.8280      8.6968     13.6465
N     -0.2582      3.2676      6.1965
C      0.7677      5.6551      0.2660
O     -1.4208      1.7875      2.6345
C      3.2485      3.8985      6.8016
H      0.9932      6.3245     -0.5624
C     15.4723      6.1208     17.3001
C     16.2138     10.2949     16.8784
H      1.5164      0.3474      9.7284
H     -2.3930      2.7061      5.8707
H      6.0096      5.1247      3.0213
H      7.5191     10.6510      9.9256
C     16.8429      8.9405     16.3893
H     15.6819     10.9838     12.4396
H      7.8072      9.7369     11.2093
H      8.3283      3.1027      2.6610
H     12.6436      7.0201     10.5303
H     -1.2135      5.0250      6.1976
C      3.1510      2.5947      7.5116
H      9.2741     -2.9043      0.3258
H      7.1229      2.6640      4.3557
O     14.5702     10.3310     15.0050
C      8.8137      0.4262      8.3608
C      6.4663      6.3774      9.8271
H     15.6632     -6.6563      9.4484
C      6.2277      2.9743      2.6077
H      6.2971      5.3235      7.0940
H      6.2272     10.3767     11.9431
H      5.1917     -2.4326      7.3432
H      3.7377      9.1197     11.2090
C     17.1163     10.7963     17.9332
C     10.1452     -4.6601      4.8997
O     14.7351     -4.3971      4.7993
C     11.2872     -5.8094      7.0098
C      8.6184      8.1158     12.2351
C     20.4431      7.9085     13.1891
C      6.3704      7.0411     -0.5516
H      5.0718      3.6267      1.0692
H     17.2728      9.9134     14.5540
H      0.8807     -0.1399      3.4452
H      7.7449     -8.2112      9.0949
H     15.2287     10.0188     17.1638
C      6.7183      7.3857     10.8209
C      8.0839      5.9174      3.3525
H     20.6219     10.5634     13.3515
C     -1.2095      6.4417      4.8294
H     14.6605      8.3742     20.7695
H      4.4574      0.8163      2.1938
H      5.6821     11.2306      9.8618
H      4.1223      6.4586      0.8962
C     10.4492     -1.6711      7.3445
C      5.4202      6.1624      9.2171
C     15.6240      7.6318     18.0606
C      4.6846      5.6349      0.4982
C     17.5408      9.1133     15.1435
H      9.3634     -5.3067      5.1597
H      8.7404      7.8896      2.9841
H      3.9276      1.2618     10.7044
H      6.9743     -0.0172      9.7036
H     19.3769     11.5580     18.0118
C     -0.1257      3.0311      8.5716
C     13.3883      8.4937     12.1387
C      1.7734      1.8849      7.2138
C     -0.4001      6.2139      1.1897
H      5.5089      7.7199     -0.6521
H     -3.4721      3.8875      5.1040
H      5.0035      4.2805      6.0045
H      7.2353     11.7938     10.6807
C     10.0286      7.4013     12.7315
O     14.6506     10.7802     12.7918
C      6.2903      8.8462      8.9615
C     15.7453      8.2824     20.3586
C      3.6539      1.1703      9.4509
C      3.5727      1.4729      4.5914
H     10.7097     -2.3745      1.1932
H      4.3082      5.4849     -0.5712
C      3.7891      3.4743      2.9844
H      8.7802     -3.3449      5.3395
C     10.5860     -4.3384      0.6360
C     10.9229      7.5306     11.6732
H     12.8148     -3.1853      6.8018
C      5.2476      3.0356      5.0610
H      7.4841      3.4156      0.9747
H      9.2269      1.5133      7.9606
C      3.0616     -0.7220      8.1949
C      5.4342     -1.2515      7.1734
C     -2.1222      4.8857      3.2763
C     16.0920      9.5898     19.6918
C      2.5308      3.6889      2.4074
C      4.5286      8.8353     10.3630
H      2.3156     -1.3708      7.6542
H     16.0764      8.2320     13.1508
H     -2.3618      4.4985      1.1375
H     12.8033      9.5725     11.9365
H      2.3077      3.9185     -1.2237
O      5.0996      7.1729      6.5037
C     13.5956     -4.9950      4.3816
H     16.4313     10.2147     20.6487
C     10.1843     -4.5862      3.4377
C     10.7454     -5.5507      2.7753
H      5.8431      9.8157      8.5199
C     10.1240     -5.6019      7.6974
H      1.0659      2.3074      4.9359
H     14.8200      7.2825     10.7374
H      6.2926      1.7966      2.4964
H      0.0461      3.7915      9.1827
C      3.1959      1.7284      0.8591
C     12.7610     -4.3368      1.9140
C     -1.2986      2.8756      1.7607
C     -0.1999      3.6591      3.8767
C      8.1680     -1.3938      6.8190
H      1.9546      0.4112      5.1404
H      9.1687     -5.7932      7.4858
H     15.0743     10.0946     19.0509
H     14.7894      6.8183     13.4411
O     12.9680     -3.2660      5.9134
C      6.7973     -0.7984      7.5102
C     13.5322     -6.1114      6.7488
C     15.0756      7.7479     13.7754
H     15.5394      8.5606     15.8349
C     13.5089     -5.4329      2.7992
H      9.1983      0.3936      9.3488
C      2.7834      0.8886      3.3526
C      0.5012      2.9417      7.1583
C     10.1292     -3.0787      7.0787
C     -2.6838      3.1696      5.0038
C     18.2393     11.5846     17.6215
C      3.2540      3.7713      9.5348
C      0.0116      3.1291      0.9945
C     11.6908     -5.1162      1.2223
C      4.5612     -0.5528      7.9443
N      1.7325      0.4205      4.0189
H      3.7955      0.2859      0.3711
C      2.9827      0.8109     -0.1725
O     17.0090      6.2653     15.6373
C      9.4209      6.4261      0.6458
H     18.1803      9.2892     19.1857
C     -2.3031      3.9516      2.1319
C      9.9755     -5.7454      9.0938
H      1.8024      1.2581      6.4698
H      7.7190      5.0293      0.8904
H      7.4217      9.7989      7.8265
C     10.1332     -3.1157      0.8269
H      4.1163      7.8170     10.0997
H     13.9790     -6.1816      9.1336
H     -2.6350      5.2521      6.3279
H     14.4497      8.3520     10.0311
H      2.8972      1.5143     -1.0345
H      0.8299      2.4676      8.6329
C     15.0769      7.4658     15.3412
H      4.7030      6.7572      9.4956
C     14.6341      8.2233     11.2353
C      6.6022     11.1477     10.3285
H      2.8929      3.4853     10.5859
H     16.1355     10.8695     16.0320
C      4.0446      8.2410      4.7898
C      7.8969      7.2633      2.9734
C     19.9170     10.3264     14.0217
C     18.7080      8.4076     15.1018
C      4.0148      6.1296      6.3225
C      2.0818      4.9833      2.3051
C      6.2026      6.0149      0.4129
C      5.5676      7.7383      4.3833
C      8.2534      7.0646      1.3598
C      4.0417      5.0811      7.3676
C      1.8513      5.1397      0.8684
H      8.0203      6.5847      5.3264
C      6.2620      7.5798      5.5708
H      9.3395      5.1510      0.6778
H      0.2257      2.2778      0.1191
C      7.1777      5.6907      1.3718
H     -0.3444      3.1221      2.8751
H     10.9417     -6.3193      9.2726
O      7.5004      7.2698      6.0618
H      9.0174      9.0376     12.1051
H      1.7422      2.8693      2.9639
H     12.3816     -3.6257      2.4252
H      4.0219      4.9662      0.8172
H      4.6417      5.1771      4.2899
C     12.2261      7.5576     11.4804
C     15.6602      6.2002     15.8457
H     14.0311     -7.6589      8.8202
C     -1.7307      4.1876      4.4975
C      0.3553      6.5464      5.1524
H      4.3140      9.7448      9.7515
H      3.4082     -0.4369      5.3962
C      1.2882      5.4641      4.6958
H      2.9803     -0.1412      1.6379
H     12.7317     -6.1883      8.5578
C      7.7285     -7.1455      9.1900
C      4.8449      0.8691      8.2614
O      5.9687      4.2708      5.3260
C      6.3861      7.7457      3.1620
C      9.7934     -3.3441      5.5230
C      0.0112      6.2345      2.5583
C     -1.4942      6.2267      3.2984
H     16.3727      8.4635     21.2434
H     15.4072      8.8589     11.4344
C      2.5606      0.3773      8.9274
C      0.5974      5.0052      3.4214
C      4.9756      3.4038      2.2556
H      8.0071      7.7013      8.4362
H     11.3792     -1.6407      6.4578
H      8.2297     -2.3863      6.6103
C     14.7213     -6.8775      8.7695
C     -1.7736      5.2899      5.4488
C      3.3156      0.8992      2.0618
C      1.5794      4.3106      5.4534
C     14.7206     -6.6704      7.2486
C      2.4287      4.0376     -0.0446
H     -1.0776      5.4123      1.0859
H      4.2219      2.0208      0.3100
H     10.5163     -1.7418      8.3901
H      2.1211     -0.0761     -0.3223
H     -2.2383      1.3865      2.6360
H      9.7380     -3.4984      7.9825
H      5.6116      1.6884      3.8779
C     12.3898     -4.3063      5.0970
C      8.5945     -6.0914      9.6970
H     17.3837      6.4583     16.3935
C      9.1594     -0.7496      7.4850
H     10.0863      6.5228      1.6356
H     10.2281     -2.1446      4.9653
H      6.4057      1.8968      9.3281
C     12.5558     -6.0494      7.5680
C      0.6835      3.1127      5.0347
O      9.1021      5.6650      4.0182
C     11.3836     -5.3512      5.3951
C      6.2017      2.5125      7.3277
C      5.3591      2.1503      6.3143
C      3.5011      0.7767      5.6738
H      5.4842      8.2432      8.5309
H      5.6963      4.1909      7.8331
H     11.4191     -3.3029      7.3059
C     14.6915     -8.2386      6.8097
H     -1.5758      2.3479      0.8308
C      3.6743      5.2228      4.9336
C      3.4908      2.6002      9.0874
H     20.2439     10.6904     14.9383
C      8.2091      7.4718     10.8573
H      3.6751      5.7015      8.0487
H     10.5987      6.6534     10.8437
H      6.7486      3.3139      7.4385
C      3.7363      2.8961      4.4089
C     17.1957      9.4802     18.8011
C      7.3647      0.2392      8.5267
C      7.7073      8.9021      8.3782
C      5.4487      5.2523      7.9038
C      6.2256      1.5223      8.2149
H     -1.2951      2.8228      8.8443
H     10.2079     -4.5930      9.2097
H      0.9989      3.2265      1.5234
H     18.8410      9.0855     13.0133
H     -0.2409      4.1216      0.6107
C     14.4878      9.9465     13.8611
H      2.9332      4.6443      8.9989
H     10.1522     -3.5809      3.0021
