269

C     32.8249     -3.8870     13.7536
C      3.9143      1.6985      6.9354
C      2.0468      2.8956      1.3472
C      7.5003      4.9604      2.3593
H      9.2815     -9.0083      2.8989
C      7.2917      3.4605      2.7426
C     16.0671     -9.0078      5.4825
C      6.7489     -3.0753     10.3209
C     28.8454     -5.7018     19.5135
C      5.9482      1.9022      3.7680
C      6.3137     -4.1911      9.4453
C     26.6933     -4.2628     13.7799
N     -0.3168      3.3263      6.5029
C      0.5475      5.9743      0.8292
O     -1.8001      1.9521      2.2287
C     16.0665     -8.8812      6.9639
C     28.5275     -6.7800     17.3725
C     29.5558     -2.1390     16.5940
H      0.9698      1.6581      9.5611
H      9.1652     -9.4979      5.0691
H     30.6892     -6.1392     16.2195
H      5.7297     -1.1194     10.8559
C     29.8782     -3.6349     16.2723
H      7.6997     -2.5814      9.7426
H      7.7937      3.3800      3.7126
H     25.6600     -5.4258     10.6453
H     10.8432     -7.3066      6.9001
C      3.0550      2.7688      7.6783
H     -2.6232     10.3876      0.0722
H      7.0693      1.3453      3.9581
O     27.3683     -2.5499     15.1938
C      8.1580     -0.2998      8.7174
C     19.8394     -6.9688      9.8496
H      3.0489      6.2682      9.1535
C      5.9915      2.9265      2.6266
H     19.0661     -7.2245      6.9496
H      7.3030     -3.4298     11.2615
H      4.7392     -2.9706      8.1990
H      5.1894     -5.8351     10.4288
C     30.5653     -1.9944     17.5584
C      9.9111     -4.2220      5.0741
O      1.7234      8.4331      5.0241
C     -1.3956      7.8837      6.9774
C     21.6365     -4.8572     12.0911
C     33.3995     -5.0266     13.0038
C      6.4671      7.3765     -0.7173
H      4.6868      4.5089      1.6627
H     30.6746     -2.8980     14.3102
H      1.6213     -0.5945      2.6341
H     -5.2150      5.7702      8.0406
C     20.0350     -6.2448     11.1049
C      7.7704      5.9904      3.2466
H     34.3643     -3.4818     15.4222
C     11.5908     -6.2843      5.1590
H     28.6273     -3.9363     21.1246
H      4.5715      0.8008      2.2277
H      5.1615     -1.8950      9.9290
H     27.4608     -5.9538     13.8790
C     10.1251     -1.0963      7.1975
C     18.7250     -7.3059      9.1886
C     28.7437     -5.4867     17.9878
C      4.4022      6.4212      0.6568
C     30.5306     -3.6576     15.1005
H      9.0996     -4.9134      4.8753
H      8.5453      8.1311      3.2445
H      3.4731      1.1948     10.5106
H      6.3891     -0.3363      9.7938
H     31.1527     -0.0293     16.9819
C      0.0523      3.5261      8.9661
C     26.5961     -4.5818     12.3694
C      1.7780      1.8517      7.6260
C     -0.7353      6.1501      1.7420
H      5.8108      8.2147     -0.9454
H      5.7383      4.1772      4.1598
H      5.4002     -2.7298     11.7778
C     22.8954     -5.2557     12.7502
O     27.0018     -1.7617     13.0937
C      6.4461     -4.2259      7.7934
C     29.2446     -4.3258     20.2743
C      3.3122      1.3328      9.4002
C      3.1881      1.6741      4.5464
H     -1.2934     10.0331      0.9382
H      5.7681     -0.9656      6.8904
C      3.7045      3.4817      3.2786
H      8.9411     -2.7436      6.0280
C     -2.1452      8.4927      0.6935
C     24.2058     -5.5386     11.9482
H     11.4249     -2.8210      6.8829
C      5.3230      2.6700      5.0150
H     31.2276     -0.1144     18.7889
H      8.7432      0.6844      8.6535
C      2.2925     -0.7113      9.0131
C      4.8476     -1.8098      8.3358
C     10.6133     -7.5542      3.5601
C     29.3313     -3.2478     19.2750
C      2.3887      3.6472      2.6365
C      4.9972     -4.8099      9.7480
H      2.7134     -0.7224      9.9670
H     29.0951     -4.2202     13.8298
H      9.8855     -7.8952      1.5978
H      2.1116      3.7097     -0.8562
O      5.2613      6.6762      6.2718
C      0.4735      7.8500      4.4121
H     29.7430     -2.3185     19.7577
C     10.2472     -4.2699      3.2916
C     10.9352     -5.3140      2.9162
H      5.8601     -3.4725      7.3104
C     -2.6149      7.7438      7.5313
H      1.0781      2.4445      5.1816
H     27.4399     -4.5689     10.7429
H      5.7227      2.3632      1.7883
H      1.1199      4.0085      9.1713
C      3.2268      2.1233      0.9755
C     -0.1022      8.4145      2.1222
C     -0.6996      2.7307      2.0875
C     -0.2646      3.9664      4.1687
C      7.4775     -1.8967      7.1676
H      1.8283      0.3259      4.3514
H     -3.5794      8.1067      7.0472
H     28.3976     -2.8483     18.7939
H      0.6962      6.1875     -0.1786
O      0.2559      9.5124      6.3374
C      6.2279     -1.2256      7.8250
C      0.6501      6.8389      6.6891
C     28.0369     -4.7982     14.2522
H     28.5943     -4.4025     16.1215
C      0.5628      7.5206      2.9994
H      8.2071     -0.6828      9.7495
C      2.9081      0.9832      3.3841
C      0.4983      2.3738      7.8670
C     10.7878     -2.1894      6.3694
C     10.1170     -9.6735      4.8296
C     31.0134     -0.7466     17.9092
C      2.7338      3.7283      9.9096
C      0.6952      2.2374      1.0936
C     -1.2836      7.8631      1.6309
C      3.9380     -0.7450      8.1692
N      2.0569      0.0665      3.4827
H      3.2213      2.1822     -1.0159
C      3.3771      1.2733     -0.3879
O     30.0908     -6.7281     15.6072
C      9.5118      6.4002      0.6345
H     31.3819     -3.5977     19.1613
H     -0.3579      1.5255      7.7422
C      9.6730     -7.9050      2.6485
C     -2.8294      8.1670      8.9883
H      1.9004      1.4324      6.3340
H      7.7318      5.2061     -0.0840
H      8.1081     -4.0840      6.3350
C     -1.8395      9.6562      0.1271
H      4.4955     -5.3017      8.8074
H      1.8684      8.0273      8.7561
H     -0.9747      9.7296      4.4496
H     28.6720     -4.2820     12.4446
H      2.4015      0.7333     -0.0427
H     -0.2658      2.8571      9.6741
C     27.9276     -5.2190     15.6857
H     17.7463     -6.9135      9.3706
C     27.7993     -4.7274     11.7748
C      5.6760     -2.2015     10.8098
H      2.8432      3.6364     11.1120
H     28.3491     -2.3703     17.2647
C      4.2487      8.4326      4.4235
C      7.8416      7.3155      2.7510
C     33.6867     -2.9464     14.6217
C     31.7824     -4.3055     14.8591
C      4.0197      6.0370      6.3819
C      1.9692      5.1760      2.5348
C      5.7511      6.3339      0.3647
C      5.6666      7.6205      4.0783
C      8.0474      6.9056      1.1855
C     17.1401     -7.9362      7.5430
C      1.7515      5.2439      1.1117
H      9.8065     -7.1886      5.1184
C      6.2188      6.7920      5.1103
H      9.5062      5.2231      0.2907
H      0.4775      1.2307      1.2182
C      7.1157      5.5974      0.8357
H     -0.3556      3.0982      3.5248
H     -1.9851      7.7908      9.5470
O      7.2677      6.8333      5.6630
H     21.9322     -3.8923     11.5874
H      1.9547      2.8884      3.2517
H     -0.4042      9.2979      2.6854
H      3.3772      4.1966      0.5790
H      4.4152      5.0395      4.3385
C     25.3504     -4.6748     11.5241
C     28.7682     -6.6631     15.8929
C     11.0244     -8.5589      4.6150
C     13.3215     -6.1601      5.3801
H      4.8435     -3.9907     10.3468
H      3.1868     -0.2134      6.0063
C     14.0136     -7.3205      4.8951
H      3.6621     -0.1131      1.3843
H     29.3989     -1.5558     15.7831
H     -0.2473      7.0044      8.5372
C     -4.8475      6.0426      9.0105
C      4.2388      0.7737      8.3132
O      6.0740      3.9003      4.9668
C      6.3393      7.7309      2.8210
C      9.8666     -2.8746      5.5443
C     -0.2268      6.3202      3.1059
C     11.3896     -6.5318      3.6551
H     30.1931     -4.4619     20.1082
H      3.8109      7.1438      0.5079
H     10.2589    -10.7853      5.4189
C      1.9751      0.9382      9.0180
C      0.5343      5.2208      3.4246
C      4.9106      3.8703      2.6242
H      1.0903      4.7069      7.9495
H      7.3119     -4.9499      9.3934
H      8.1636      4.7357      4.4212
H     10.8607     -0.2264      7.3890
H      7.2331     -1.3592      6.2002
C      2.0176      6.7475      8.7590
C     10.7153     -7.3928      5.7886
C      3.4710      0.8996      1.8835
C     14.4415     -8.4831      5.5951
C      1.9078      6.3786      7.2598
C      2.4631      4.2014      0.2972
H     -1.5607      5.4616      2.0013
H      4.2654      2.7579      1.2564
H      4.0630      0.4746     -0.2222
H     11.7074     -1.5960      5.6699
H      5.6606      1.0068      3.2294
C     -0.3864      8.9729      5.1003
C     -3.9546      7.2032      9.5920
H      3.5967      5.4703      0.7603
H     34.3284     -2.6073     13.8049
C      8.7208     -1.0651      7.6816
H     10.2984      6.1484      1.2617
H      9.9669     -2.1588      4.5815
H      5.6458      2.0192      9.2296
C     -0.2848      7.0648      7.4351
C      0.4658      3.3390      5.2853
O      8.3342      5.7975      4.4433
C     -1.5194      8.0753      5.5931
C      6.1208      1.4063      7.3590
C      5.3089      2.0558      6.4673
C      2.9366      1.0890      5.9562
H      6.4872     -5.3844      7.7705
H     18.9922     -9.0847      8.3116
H      8.5135     -3.7204      8.0418
H      0.6792      8.5123      6.6301
H      1.9093     -1.5444      8.1046
C      1.9064      4.9241      7.1783
H     -0.8772      3.8575      1.5169
C      3.8066      5.2622      5.0791
C      3.1893      2.8221      9.0609
H     32.8588     -2.4680     15.0169
C     21.5016     -5.7272     10.7961
H     16.9516     -7.6384      8.5172
H     23.9076     -6.2755     11.1362
H      7.2876      1.5988      7.3448
C      3.8867      2.7945      4.5544
C     30.6623     -3.4474     18.2963
C      6.6556     -0.1047      8.7540
C      7.6868     -3.5918      7.3228
C     18.7518     -8.0917      7.9012
C      5.6008      0.9529      8.5654
H     -1.1197      3.8702      8.8554
H     -3.3668      8.9953      9.4297
H      0.4905      2.1335      0.0272
H     32.6900     -3.2354     12.9849
H     20.8280     -7.0334     11.4331
H     -0.8123      2.3994      6.2312
C     26.9714     -2.7050     14.0270
H      2.1615      4.7859      9.6202
H     10.2249     -3.3156      2.4643
