268

C      6.8423      8.7564      0.8898
N     -1.8336     10.4832     14.7627
C      3.9018      1.5257      7.1819
C      2.0356      2.8034      1.6145
C      7.4627      4.8286      2.0862
H     -2.9868      7.2053     14.6625
C      7.2374      3.3521      2.6519
C      3.2013      3.9473      5.5866
C      3.3558      7.2744      6.5131
C      5.5313      1.9271      3.8285
C     -7.0567      8.4096     22.7235
C      1.2558      8.6045      0.7629
N     -0.0776      2.6811      6.2283
C      0.3075      6.0016     13.4614
O     -1.3392      2.7903      1.0052
C      3.0671      4.2034      7.0842
H      0.1313      5.2201     12.6648
C      2.6729      6.2208      4.5802
C      3.2939     10.2896      3.5925
H      0.8709      0.8004      9.7568
H     -3.5296      3.0712      4.4818
H      4.8710      5.8282      2.2030
C      4.0047      9.0420      3.4132
H     -8.2721      6.5272     23.4390
H     -6.8733      9.2454     23.4079
H      8.0929      3.0275      2.2227
H     -0.1561      6.9729     10.4679
H     -0.7075      5.5186      6.4750
H     -5.6255      3.2914      8.1828
C      2.7868      2.6679      7.5409
H      6.6174      1.5220      4.0868
O      1.4895     10.5516      1.9115
C     -4.8011     12.5514     21.3525
C     -6.3394      6.1634      9.6039
H      3.2587     -0.1830      6.6029
C      6.1207      3.3174      3.3880
H     -7.3719      3.2702      8.1507
H     -7.9994     10.2354     22.0553
H     -9.2541      7.8265     23.2871
C      4.2331     10.9644      4.8221
C     -3.0397      8.4226     17.9399
O      1.9365      8.5236      4.8787
C     -1.4202      8.1115      6.7943
C     -4.4383      8.2840     12.0255
C      7.4357      7.6707     -0.1001
C     -6.6055      7.0658     11.9861
H      5.4118      4.9290      2.5197
H      3.9063      9.8360      1.4635
H      1.3694     -1.4758      3.6551
H     -5.1157      6.7196      7.3054
C     -5.4916      2.9708      9.3637
C     -5.8137      6.7113     10.7204
C      7.7718      5.6590      3.1496
H      8.1383      7.4937      1.8419
C     -1.2727      6.7626      5.0397
H      3.7239      8.9206      8.0192
H      2.1527     -0.1820      2.1756
H      1.7565      6.7050      0.8318
C     -2.9909     11.6391     20.1167
C     -6.9313      4.8465      9.3077
O     -7.6535      3.1594     10.6164
C      3.0597      7.7472      5.0481
C     -8.2242      5.4230     12.7662
C      4.5451      8.9793      2.0790
H     -3.5944      7.5092     17.9516
H      8.3630      7.7356      3.6450
H      3.0723      1.3194     10.7925
H     -6.5525     12.4458     22.9650
H      4.3965     12.8317      3.6611
C      0.1226      3.4238      8.6974
H      8.0805     10.8130      1.3669
C      0.3944      8.3264     11.8996
C      1.5393      1.7602      7.7907
H     -2.0828      8.1794      9.5311
C     -0.8401      6.3057     14.3705
H     -7.4156      8.0269     11.5643
C     -2.9178      7.6996     12.4315
O      2.9075     10.1560      0.1107
C     -6.4119      8.4420     21.4401
C      4.0937      8.2811      7.2183
C      3.2262      1.5341      9.6287
C      2.6265      1.5747      4.9614
H     -2.3008     11.4981     14.8239
H     -7.7198     11.7876     19.9036
H      4.2731      4.6339      9.6872
C      3.8321      3.3205      3.3604
H     -3.9810      9.7354     19.6292
C     -2.1396      8.4292     13.4840
C     -1.8017      7.0645     11.5695
H     -1.2503     10.6054     19.2954
C      4.8556      2.2487      5.2351
H     -1.3658      3.3683      0.1602
C      2.3970     -0.5830      8.7946
C     -8.6891     10.9141     21.6514
C     -2.2081      5.0174      3.2706
C      3.8075      9.4825      6.4575
C      2.2975      3.7206      2.8230
C     -8.1986      7.4594     22.7464
H      3.5024      7.9301      1.4389
H      8.7692      4.4029      5.0931
H      3.0286      4.4246     12.2050
O      5.6806      6.1170      6.4167
C      0.7168      8.0315      4.2663
H     -9.6795     10.3644     21.1029
C     -2.8056      8.6333     16.5749
C     -2.4967      7.3429     15.7103
H     -6.7464      7.8386     20.7417
C     -2.6305      8.0787      7.3797
H      2.3428      3.7280      5.0935
H      0.9985      9.2335     10.0293
H     -7.4430      3.7750     13.6247
H     -0.6678      4.1576      8.1988
C      3.1156      1.6754      1.6982
C      0.0662      8.3989      1.7693
O     -8.3670      4.1009     12.9975
O     -5.6405      4.0609     11.6303
C     -0.2116      3.0761      1.6760
C     -0.2913      4.1316      4.2630
C     -5.8762     10.7313     20.3183
H     -3.5924      8.0975      7.0616
H      2.8121      9.5001      6.4141
H     -0.5315      9.6465     16.6064
H      0.4280      7.0388     13.0575
O      0.0518      9.7373     18.7516
C     -7.1922     11.4022     20.9275
C      0.7593      7.4788      6.5020
C      2.4329      7.7827      1.1773
H      2.2673      8.6265      3.0582
C      0.6345      7.5146      2.7009
H     -4.1489     12.7537     22.3693
C      2.6135      0.4400      4.1446
C      0.2327      2.2791      7.6071
C     -2.4275     10.8364     19.1233
C     -2.5811      3.1210      5.1224
C      4.8492     12.1319      4.5561
C      3.3430      4.2873      9.6846
C      0.7154      2.2170      1.1884
C     -1.4262      7.8022     14.6497
C      3.8063     -0.5242      8.9836
N      2.0012     -0.7828      4.3122
C      3.7450      1.4273      0.2808
O      3.9315      6.0939      2.4415
C     -3.5230      6.5317     13.1221
H      5.7352     10.0166      5.7707
H     -0.3413      1.4606      7.7704
C     -2.7793      4.7342      2.2510
C     -2.9504      8.1859      8.7983
H     -5.0946      1.9895      9.7212
H      1.7894      1.2124      6.8341
H     -6.4981      4.2164     12.1892
H     -5.2804     10.2898     22.3554
C     -2.6897      9.6783     13.8898
H     -8.4555      6.5591     22.1002
H      2.0140      7.7031      8.9337
H      0.0406      9.3373      2.3657
H      1.5991      9.9324     11.3891
H      1.0747      4.0847      8.7156
C      2.0112      7.5071      2.5831
H      3.0821      1.5636     -0.5576
C      1.1682      9.0790     11.0465
H     -7.2881      2.3959     11.1070
H      2.1958      9.9027      3.9864
C      4.2082      7.9371      4.2974
C      7.7230      7.2034      2.8514
C      7.9040      9.5518      1.6173
C      5.7729      8.4066      1.9416
C      4.2533      6.0867      6.6338
C      1.6407      4.9482      2.6171
C     -6.8515      5.9948     13.0311
C      5.4676      7.3002      4.2285
C     -4.8134      6.4499     13.1720
C     -8.7198      4.9782      7.6176
C      1.5058      5.2787     14.0263
H     -2.6762      5.7191      6.0681
C      6.1470      6.5105      5.2476
H     -1.8532      2.4196      5.0851
H     -2.8816      5.1428      1.2517
H      0.7694      1.1899      0.5609
C     -5.7640      5.5710     13.6306
H     -0.1926      3.4116      3.2810
O      7.4248      7.1563      5.7196
H     -4.4417      9.3435     11.6412
H      7.6908     10.0097      2.4010
H      1.6018      3.2733      3.5166
H     -0.7954     10.2467     15.0910
H      2.9122      3.9073     13.8486
C     -0.5949      7.4679     11.4142
H      6.2842      5.5749      4.9928
C      2.6846      6.2231      3.0998
H      1.6437      6.0147      9.2289
C     -1.9317      4.3560      4.4488
C      0.2071      6.8910      5.1890
H      5.0413      7.6301      7.4845
H      1.4137      1.9202      5.0299
C      1.1204      5.8080      4.8022
H      1.9587     -1.4913      9.3154
H      1.5547      1.3541      2.8575
H      3.2980     10.6827      2.6156
H     -0.0207      8.3331      8.3076
C     -4.8381      6.4571      8.5596
C      4.4246      0.6183      8.4042
C      6.2327      7.6947      3.1108
C     -3.4312      9.7087     18.7240
C     -0.2801      6.2965     15.7409
C     -1.5716      6.3579      3.6459
H     -8.5737      5.9220     11.8461
H     -2.9740      3.0616      6.1351
C      2.0307      0.9437      9.0627
C      0.5401      5.2753      3.6877
C      4.9571      4.2173      3.4236
H      1.0581      4.9641      7.9468
H     -4.4826      9.1562     20.7567
C     -6.3785      3.9351     10.3533
H     -2.2516     12.3445     20.3257
H     -5.8643     10.5092     18.9579
C      2.1800      6.7174      8.5146
C     -1.6794      5.4767      5.8972
C      2.4185      0.7013      2.5947
C      1.1103      4.8571      5.7871
C      1.9037      6.5619      7.0869
C      2.3547      4.5726     13.3062
H     -1.4640      5.4704     14.3646
H      3.6796      2.3181      2.4440
H      4.9044      1.8764      0.3286
H     -4.2920      5.6767      8.6918
H     -4.5365      3.2304      9.7243
H      4.8798      1.4262      3.1669
C     -0.3167      9.1509     17.5787
C     -4.0262      7.3364      9.4688
H     -8.9625      5.6906     13.5869
C     -4.4573     11.6505     20.4945
H     -2.5121      3.5261      1.6961
H     -4.3756      9.9836     18.1682
H      6.3809      1.7163      8.3618
C     -0.1606      7.9484      7.3338
C      0.2617      3.8452      5.4957
O      8.4097      5.3068      4.3157
C     -1.4151      8.2320     18.2794
C      6.2172      0.8320      6.7698
C      5.1954      1.7782      6.4565
C      3.4455      0.6785      6.0473
H      7.5097      8.1464      5.2943
H      7.1770      1.2821      6.4966
H      4.5672      2.6647      9.2162
H      0.6544      8.9840     19.0600
H      5.4884     12.6278      5.5454
C      1.7895      5.1536      7.0331
H     -0.1408      4.1976      1.9386
C      3.6073      5.4877      5.3048
C      3.5586      3.0216      9.0796
H      8.8386      8.9389      1.4584
C     -4.6444      7.4273     10.6467
H      2.6057      4.9371      9.2371
H     -1.9127      6.7029     10.7123
H      6.5611     -0.1207      6.6706
C      3.4852      2.6871      4.7465
C      4.6508     10.2134      5.9141
C     -6.3662     12.4132     21.6723
C     -5.4447      9.6831     21.2102
C     -7.4044      4.3041      8.1006
C      5.9896      0.7428      8.3081
H     -0.1252      2.9364      9.8217
H      6.7058      9.6387      0.5152
H     -3.0209      5.6108     13.0062
H     -0.6105      2.1008      5.4482
C      1.7143     10.0399      0.8367
H      3.2782      4.6953     10.6659
H     -2.1140      9.7269     16.5499
