258

C     20.0372      8.7226     13.6423
N     -2.2776     10.6195      1.5304
C      3.7502      1.7206      7.2217
C      2.3504      2.2708      1.8905
C      7.7115      4.8117      2.0857
H     -3.1085      6.9026      2.0605
C      7.8397      3.6705      2.9925
C      3.2709      3.6659      5.1650
C     16.2057      7.2350     19.4337
C      6.3337      1.7507      4.1340
C     -7.2291      8.1885      9.8420
C     13.5621      9.0749     13.6439
N     -0.3107      2.7018      6.1021
C      0.4403      5.8674      0.5530
O     -1.5213      2.6054      1.1338
C      3.2619      3.9994      6.6753
H      0.4449      6.3433     -0.6105
C     15.6727      6.2666     17.1525
C     16.3782     10.3979     16.4537
H    -11.8776     14.7190      9.3604
H     -3.3541      2.9972      4.9609
H     17.4948      6.5841     15.1944
C     16.9583      9.0310     16.0093
H     -8.7970      6.9009     10.8440
H     -7.1182      9.1533     10.5183
H     -0.9583      5.1437      6.8288
H      7.3742      2.3584      7.9602
C      2.9389      2.9356      7.5302
H      7.4965      1.8686      4.3743
O     13.8254     10.6461     15.2492
C     -4.8740     12.5197      8.4704
C      6.1949      6.0505     10.0038
H      2.7238      0.0793      6.7980
H      4.1432      5.3833      8.3208
C      6.5944      3.0102      3.3111
H      5.6961      3.3289      7.2279
H     -8.7420     10.3224      9.0609
H      2.7860      5.9174      8.6704
C     17.3323     10.6524     17.4721
C     -2.7660      8.6681      4.9281
O      1.9026      8.6232      4.8635
C     -1.4182      8.6926      7.1376
C      8.6561      7.8629     11.7242
C     20.4606      7.4376     12.7998
C      6.5290      6.7348     -0.8454
H      5.3222      4.4013      2.0690
H     17.1904     10.0805     14.3703
H      1.5133     -0.1821      5.5536
H     -4.4474      6.6366      7.2252
H     15.8443     11.5135     13.5597
C      7.6190      2.4830      9.0132
H      0.4310      0.8745      1.5728
C      7.2006      6.2264     10.9121
C      7.7090      5.8569      2.9892
H      7.8585      7.6098      2.1049
C     -0.9790      6.8258      5.2301
H     15.7839      8.6585     20.7542
H      3.9690     -0.1495      3.3621
H     14.9792      7.2054     13.1689
C     -3.2077     11.4739      7.3651
C      6.2040      4.7330      8.8826
C     15.9049      7.5746     17.7989
C      4.9773      5.0982     -0.1954
C     17.7592      9.1912     14.8623
H     -3.4107      7.7245      4.8083
H      8.1336      7.7316      4.0375
H     -9.7895     14.7132     10.5588
H     17.5754     12.7045     17.1897
C     -0.2799      3.8470      8.6593
C     13.1787      9.1359     12.1048
C      1.5063      2.1589      7.8099
H     -2.0171      7.9661      9.6097
C     -0.4111      6.3667      1.5179
H      5.4547      7.1599     -0.6632
C     10.3944      7.5724     12.4867
O     14.9336     10.9653     13.2640
C     -6.6208      8.1558      8.6106
C     16.6635      8.3801     20.2634
C     -9.8337     14.6243      9.4916
C      2.5717      1.2218      4.9559
H     -2.5214     11.8269      1.3964
H    -11.1294     17.4111     10.1661
C      4.0777      3.0623      3.0428
H     -3.3562      7.9653      7.4334
C     -2.0618      8.3936      0.5714
C     11.5362      7.2297     11.4895
H     -1.5251     10.4906      5.6525
C      4.9659      2.0113      5.0548
H      3.7657     -0.0837      5.9747
C    -10.5818     12.6958      8.8423
C     -8.3717     11.4208      8.9508
C     -2.1726      5.3568      3.8344
C     16.6996      9.7443     19.6054
C      2.9075      3.5186      2.3773
C     -7.9761      6.6818     10.2125
H     15.7991      9.0258     13.9325
H     -3.4091      5.5533      4.0532
H      1.4183      4.3063     -1.1139
O      5.6199      6.5955      6.4125
C      0.7087      8.1366      4.5173
H     16.9249     10.6735     19.8782
C     -2.6701      8.7439      3.3426
C     -2.2485      7.3802      2.7435
H     -6.5863      7.0707      7.8163
H      8.5585      4.0576      3.7702
C     -2.9167      8.7327      7.9781
H      2.3087      3.3821      4.6722
H     13.0819     10.2365     10.2122
H      5.0418      3.5263     -0.4543
H      0.6348      4.3214      8.8960
C      3.3802      1.2234      1.9647
C     -0.2177      8.5669      2.1105
O      4.4735      3.8994      0.3718
O      7.5106      3.7811     10.6838
C     -0.3244      2.8105      1.2468
C      0.1433      3.9712      3.6759
C     -5.8276     10.4253      7.8559
H     -3.5192      9.5449      7.8014
H     15.7574      9.9895     19.5385
H     -0.3871     10.0328      4.6572
H     12.6111      8.0317     10.3281
O      0.6028      9.6967      6.3233
C     -7.1046     11.4652      8.3239
C      0.7673      7.1873      6.5792
C     14.9969      8.2510     13.8049
C      0.6135      7.7904      2.8778
C      2.1410     -0.0128      4.0355
C     -0.0211      2.6125      7.4479
C     -2.7283     10.7021      6.1235
C     -2.5689      3.5946      5.5414
C     18.0250     11.7930     17.5871
C     -9.9615     17.3396      9.8311
C      1.0482      1.7925      1.2378
C     -1.2822      7.6782      1.5320
C     -9.1917     12.4010      8.6638
N      1.9283     -0.9156      4.9028
C      3.9895      0.7946      0.8622
O     16.8824      5.8832     14.9174
C      9.7643      6.2933      0.0269
H     18.6552      9.5054     18.6772
H     -1.0207      2.0597      7.9980
C     -2.5936      4.6437      2.5435
C     -3.0565      8.2456      9.3696
H      7.6384      1.8875      9.8826
H      1.5469      1.6874      6.7382
H      7.4625      3.1204     11.4349
C     -2.2733      9.7349      0.4936
H     -8.3234      6.6132      9.1888
H      1.7784      7.4389      8.5060
H     -0.3650      9.5393      2.4294
H      4.6205     -0.0733      1.0786
H     -0.2413      3.1083      9.5527
C     15.0076      7.4094     15.0951
H      3.2903      0.4897      0.1936
C     13.5528     10.0248     11.2240
H     15.4809     10.2813     17.0722
C      4.2461      8.3863      4.4463
C      7.5860      7.3741      3.2296
C     21.0798      9.6478     13.7875
C     18.8545      8.4087     14.7740
C      4.3706      5.9493      6.2704
C      1.9953      4.9213      2.3113
C      6.4451      5.4732     -0.0272
C      5.5126      7.7170      4.1637
C      8.4576      6.5564      0.5181
C      4.3493      4.9780      7.2879
C      1.5503      5.0103      0.9225
H     -2.5786      5.9906      6.5447
C      6.2834      6.9244      5.0817
H     -1.4309      2.9977      6.3226
H     -3.1185      5.4478      1.9036
H      1.7624      0.8759      0.4740
C      7.4130      5.4015      0.6955
H     -0.9835      3.9832      3.5722
H      8.4676      8.8127     11.6246
H     21.3658     10.1788     12.5977
H      0.5680      2.9478      3.2008
H     -2.2785     10.3272      2.6065
H      4.8716      5.7818      4.2620
C     12.4575      8.0609     11.3912
H      7.0991      5.0795      4.5626
C     15.7949      6.2395     15.6573
H      0.8794      6.0821      8.9778
C     -1.9437      4.7078      5.0453
C      0.5651      6.9234      5.1776
H     17.7895      8.0286     20.0951
H      1.7076      1.8623      5.3899
C      1.4567      5.7089      4.6755
H    -11.2132     11.9755      9.0964
H      2.0065     -0.7966      2.1418
H     16.4888     11.0278     15.6558
H     -0.1341      7.3391      8.5151
C     -4.4943      6.4882      8.1927
C     -8.7282     13.7627      8.5209
C      6.0568      7.6552      2.9870
C     -3.4015      9.7755      5.5002
C     -0.0337      6.3429      2.8852
C     -1.1861      6.5345      3.5741
H      2.5889      3.8692     -0.2503
H      5.1027      5.1862     -1.4658
H     -3.0069      3.9800      6.4414
C    -10.9964     14.0419      9.0000
H     -1.1470      9.5679      7.5316
C      0.9104      5.1338      3.2835
C      5.2179      3.5030      2.7509
H      1.5025      4.4844      7.6316
H     -5.2534      8.7374      6.8761
C      6.9144      3.5701      9.4677
H     -2.7624     12.5723      7.7854
C      1.7644      6.4720      8.6540
C     -1.5979      5.4890      6.0825
C      2.9036     -0.0223      2.8632
C      1.0815      4.5729      5.5689
C      1.9070      6.3628      7.1167
C      2.0697      4.6598     -0.4262
H     -1.6050      4.6551      2.1124
H      4.1470      1.6082      2.5631
H     -3.5148      8.5048     10.5791
H      4.9868      1.3613      0.5720
H     -5.4968      5.7235      8.6726
H      5.5243      1.3918      3.2081
C     -0.0775      9.1511      5.2540
C     -3.9226      7.1653      9.2824
H      4.4451      6.0053      0.0371
H     -3.8019      8.9507      3.0678
C     -4.5458     11.3199      7.7855
H     -2.9898      3.7617      2.9467
H     -4.2087      9.0599      5.6040
C     -0.2262      7.5234      7.5670
C      0.2470      3.5644      5.2459
O      8.0640      5.5578      4.6058
C     -1.4224      8.3568      5.5125
C     -6.7336     14.3372      7.1866
C      5.1005      2.0254      6.5919
C      3.0357      0.7447      6.2399
H     -5.8314     13.7238      6.9351
H     -8.5322     16.0136      8.8162
H      1.4964      9.4181      6.4641
H     18.4599     12.2166     18.6484
C      1.9668      4.8916      6.7564
H      0.3283      3.7573      1.3164
C      3.9585      5.3107      4.7358
C     -9.6368     16.0545      9.0883
H     20.6761     10.2357     14.6561
C      8.3023      6.9928     10.5571
H     -9.4898     17.3113     10.8398
H     11.5671      6.4493     10.6355
C      3.6159      2.4871      4.5256
C     17.5126      9.6007     18.3839
C     -6.3548     12.6468      8.8292
C     -5.5311      9.0191      7.9504
C      5.6839      4.4309      7.6573
C     -7.1847     13.9188      8.4766
H     -1.2560      4.0191      7.9565
H     -2.3927     10.4483     -0.4973
H     10.5176      5.4824      0.3058
C     14.1528     10.3177     14.1229
H     -9.5463     18.1976      9.4950
