259

C     19.9879      9.0440     13.9364
C      3.8299      1.6093      7.2153
C      2.0834      3.0408      1.4765
C      7.2176      4.9668      2.4484
H     -3.2199      3.7617      3.0054
C      7.2360      3.6128      2.8995
C      3.5218      3.8010      5.5323
C     -6.1998      9.7946     10.2910
C     16.0259      7.4281     19.4326
C      5.8642      1.5329      4.0317
C     -6.8999      9.1384      9.3131
C     13.8089      8.7959     13.8384
N     -0.3737      2.6799      6.3064
C      0.4728      5.8038      0.5653
O     -1.8373      2.7566      1.8918
C      2.9335      3.9725      7.0123
C     15.2894      6.3629     17.4269
C     16.4834     10.4974     16.8044
H    -11.5736     13.3482      9.6263
H     -3.5822      3.5551      4.7582
H     17.0490      5.1458     15.7036
H     -7.4104      9.7653     12.1915
C     16.9858      9.2072     16.3643
H     -8.7072      8.2346     10.9736
H     -5.2099     10.6508      9.8735
H      7.7068      3.2042      3.7060
H     12.6315      7.4427     10.9536
H     -0.7914      5.1095      6.4847
C      2.8401      2.5741      7.5812
H     -2.8809     10.3627     -0.0216
H      6.7799      1.1613      4.5297
O     15.5550     10.1366     14.5796
C     -4.7605     12.7344      8.9529
C      6.7753      6.2227      9.3751
H      2.3472     -0.0229      6.4453
H      2.9324      6.4370      9.1845
C      6.2749      2.4482      2.8476
H      6.3898      4.8489      7.7514
H     -5.7781      8.8789     10.5959
H     -7.8060     10.1860      9.2391
H     -7.7682      7.3724      9.3332
C     17.6494     10.7838     17.8651
C     -2.8055      8.6867      4.7004
O      1.8186      8.5795      5.0131
C     -1.7054      8.2022      7.0864
C      8.5934      8.0970     12.1780
C     20.3021      7.8257     13.0008
C      6.1923      7.1217     -1.0752
H      4.7797      3.5444      1.5907
H     17.7242     10.1281     14.4803
H      1.8166     -0.9976      3.2973
H     15.6308     10.8476     15.3081
C      6.9823      6.4423     10.8088
C      8.1907      5.5992      3.3885
H      8.5738      7.9311      2.5433
C     -1.2338      6.8263      5.1793
H     15.9347      9.0996     21.0502
H      4.5751      0.6845      2.3714
H     15.5462      7.1964     13.4817
C     -2.8533     11.4394      7.8041
C      5.5949      5.4171      9.4800
C     16.0061      7.6474     17.9421
C      4.5433      6.1435      0.4139
C     17.7994      9.1465     15.1921
H     -3.6137      8.3268      5.0249
H      8.2982      7.6410      4.2392
H     -9.0254     14.3367     10.3178
H     17.9781     11.8509     16.5532
C      0.0996      3.6549      8.6526
C     13.0573      8.4710     12.3541
C      1.5549      1.8688      7.8721
H     -2.2566      5.9795      9.4033
C     -0.5956      6.3616      1.5551
H      5.4685      8.1700     -0.8671
H     -2.2768      2.9199      4.1127
H     -8.0939     10.7680     10.9860
C      9.7372      7.5595     12.7690
O     14.7860     11.3030     12.9066
C     -6.3945      8.6337      8.1048
C     16.1787      8.6660     20.0927
C     -9.6278     14.3300      9.5768
C      2.7958      1.5557      4.8387
H     -1.1218     10.2788     -0.5629
H     -6.8251     12.1184      6.6197
H     -9.3372     17.1332     10.7857
C      3.5827      3.3710      3.2386
H     -3.8080     10.7293      5.3887
C     -2.1826      8.6251      0.7406
C     10.7471      7.0433     11.9043
H     -1.9748      9.7185      7.0858
C      5.1133      1.9408      5.0462
H      4.3143      0.0470      5.6539
H     -4.4569     13.6411      8.4087
C    -10.2694     12.2403      8.3817
C     -7.7438     11.0600      8.2188
C     -2.3727      5.2724      3.5002
C     16.9161      9.6853     19.6232
C      2.1863      3.3948      2.9156
C     -8.0862      8.2940      9.8806
H     15.9542      8.3720     14.0616
H     -2.9721      4.5146      1.6893
H     14.0569     11.6225     12.3397
H      1.9499      3.7970     -0.2673
O      5.9773      6.6321      6.6793
C      0.4690      8.2880      4.5263
C     -2.4683      8.8108      3.2242
C     -2.0090      7.5743      2.6228
H     -6.9764      7.9909      7.5401
C     -2.6945      7.5924      7.6436
H      2.0593      4.1425      5.1341
H     14.1515      8.6282     10.4895
H      5.9740      1.7114      2.1507
H      1.1340      4.3382      8.9793
C      3.2657      2.0083      1.1894
C     -0.1134      8.6103      2.0712
C     -0.4449      3.2750      1.7880
C     -0.3896      3.9823      4.1088
C     -5.1564     10.7495      7.3388
H     -3.4162      7.1328      6.9076
H     16.7105     10.7801     19.4659
H      0.6961      6.0969     -0.4542
O      0.0344      9.4807      6.4827
C     -6.5205     11.5279      7.5258
C      0.6251      7.1400      7.0622
C     14.9811      7.9046     14.0787
H     15.4673      8.2959     15.8099
C      0.6007      7.5937      3.1496
H     -3.9425     12.5972      9.7288
C      2.6095      0.7210      3.6694
C      0.1409      2.2851      7.9028
C     -2.3099     10.5684      6.3870
C     -2.6643      3.3586      5.1022
C     18.0344     12.0659     17.5571
C     -9.8647     17.0626      9.6075
C      0.6787      2.3538      1.2759
C     -1.1589      7.9377      1.5110
C     -8.8137     12.2587      8.0852
N      1.7539     -0.1754      3.9401
H      4.1242      1.1219     -0.6673
C      3.1319      1.2667     -0.1073
O     16.9321      6.1271     15.6475
C      9.1855      6.5995      0.8527
H     18.9848      9.3878     18.8648
H     -0.4653      1.5115      8.4979
C     -2.6295      4.4349      2.6163
C     -2.6045      7.1428      9.0833
H      1.7041      1.3559      6.7742
H      6.7202      4.8557      0.1748
H     -4.4852      8.5385      6.9819
C     -2.1315      9.6677     -0.0705
H      5.1688      4.9861     10.4046
H      2.6920      7.8539      9.0130
H     -0.6312     10.0058      4.6332
H     15.1484      9.1034     11.7898
H      2.6882      1.8712     -0.9497
H     -0.3455      3.1691      9.6253
C     14.8476      7.3726     15.4624
C     14.0066      8.9637     11.5449
C     -7.1137     10.3948     11.3037
H     15.5624     10.1688     17.5490
C      4.5847      8.1647      4.6662
C      8.1302      7.1965      3.3653
C     21.2842      9.3310     14.5647
C     19.0524      8.4152     15.1081
C      4.3563      5.7962      6.3977
C      1.6123      4.7012      2.6835
C      5.8693      6.1792      0.2435
C      5.7566      7.1834      4.3120
C      7.8661      6.8438      0.9697
C      4.2505      4.7619      7.4821
C      1.4672      5.0585      1.3055
C      6.5444      6.7229      5.5144
H      9.5947      5.6877      1.2983
H      1.2436      1.6096      1.6082
C      6.9840      5.5226      1.0353
H     -0.0715      3.4438      3.0981
O      7.7771      6.5398      5.6466
H      8.8078      9.0863     11.8434
H      1.5313      2.7355      3.4648
H     -0.1386      9.8062      2.0287
H      3.4136      3.8928     -0.1211
H      4.7908      5.0309      4.2862
C     12.0027      7.4256     11.9801
C     15.5464      5.9666     15.9764
H      1.3763      7.1071      9.7501
C     -1.8040      4.5873      4.7633
C      0.3444      6.9993      5.3150
H     -8.6566      8.8147      9.1156
H      1.8542      2.4756      5.1390
C      0.9646      5.8158      4.7992
H     16.6397     11.2680     16.0631
H     -0.4173      7.2711      8.7677
C     -4.8783      5.9858      8.7787
C     -8.6238     13.6275      8.1917
C      6.5442      7.5220      3.1980
C     -2.9637     10.1404      5.1395
C     -0.1940      6.3202      2.9904
C     -1.5547      6.5724      3.5187
H      4.2973      7.1687      0.1560
C    -10.7546     13.6294      8.8277
C      0.3548      5.2822      3.6391
C      4.7905      3.4733      2.6593
H      1.2128      4.3186      7.4248
H     -5.7632      7.8521      8.9355
H     -2.1402     12.0647      8.2428
H     -4.9639     10.9494      6.3291
C      1.9745      7.0245      8.9320
C     -1.5134      5.5930      5.8132
C      3.4183      0.8510      2.2437
C      1.2493      4.6953      5.6967
C      1.7725      6.5276      7.3704
C      2.4418      4.2456      0.4653
H     -1.2605      5.7012      1.8901
H      2.4600      0.4873     -0.1743
H     -1.3649     11.2122      6.3974
H      5.1750      0.9746      3.5764
C     -0.6223      9.2251      5.2713
C     -4.0189      6.9738      9.3548
H      4.1440      5.3801      1.1189
H     21.7608     10.1020     13.6931
C     -4.1176     11.5329      8.0791
H     -3.0057      7.2089      2.1802
H     -2.4551     10.6606      4.3589
H     -7.1583     14.4791      9.3200
C     -0.5637      7.3631      7.6050
C      0.0341      3.7670      5.4679
O      8.6164      4.7620      4.2924
C     -1.6754      8.2522      5.5263
C     -6.5988     14.1165      7.1271
C      5.4409      2.0042      6.3774
C      3.2307      0.7133      6.0588
H      9.7185      4.7107      4.6437
H     -6.0326     14.9543      7.2114
H      5.3997      3.4463      8.5065
H     -4.5745      8.9634      8.4609
H     19.2918     12.2563     17.8637
H    -10.6447     11.1303      8.3798
C      1.9625      5.0608      6.9460
H     -0.6204      4.2395      1.5087
C      4.0420      5.0251      5.1504
C     -9.7852     15.7820      9.0278
H     21.3819      9.1627     15.6473
C      8.3427      7.3040     10.8477
H      4.1979      5.7566      8.2657
H     -5.7250     13.6259      6.5548
C      3.6944      2.7458      4.5989
C     17.8845      9.4101     18.5054
C     -6.1798     12.6393      8.8018
C     -5.1738      9.2894      7.5400
C      5.4982      4.5549      8.2709
C     -6.9869     13.7626      8.5135
H     -0.7128      4.1264      8.2025
H      0.5187      2.2328      0.1847
H     19.3394      9.8768     13.5215
H      7.0250      5.4050     11.2257
H     -1.2747      2.1522      5.7758
C     14.3554     10.2791     13.9556
H    -10.0345     18.2454      9.3676
H     -2.6029      9.6143      2.5822
