263

C     19.7688      8.8246     13.9919
C      3.9778      1.5629      7.2195
C      2.2155      3.1590      1.2604
C      6.9779      4.8027      2.4990
H     -3.3270      3.3013      3.1448
C      7.0939      3.4504      2.8107
C      3.5374      3.9883      5.4143
C     -6.0419      9.6238     10.6509
C     16.0527      7.1778     19.4548
C      5.9492      1.6507      3.8609
C     -6.8465      8.7613      9.7462
C     13.7386      8.5343     13.6134
N      0.0750      3.0428      6.5904
C      0.6004      6.0007      0.5880
O     -1.5144      2.7895      1.3886
C      3.5685      3.8408      6.7712
C     15.7442      6.2323     17.2859
C     16.6295     10.6766     16.5077
H    -11.6165     13.7686      9.9890
H     -3.6391      3.6884      5.0903
H     16.9518      6.8144     14.6065
H     -6.7337     11.6689     10.9268
C     16.9149      9.3773     16.1150
H     -5.1046     10.1280     10.5704
H      8.1035      3.2520      3.1618
H     12.3679      6.9974     10.6163
H     -0.9559      5.2317      6.6617
C      3.1757      2.6645      7.4897
H     -2.5287     10.4576     -0.6924
H      6.4290      0.8049      3.7262
O     14.9497     10.5816     14.6969
C     -4.8893     12.7305      8.9301
C      6.9815      6.3003      9.5341
H      2.8818      7.0874      9.2585
C      6.1649      2.4601      2.3110
H      6.4457      4.7228      6.5870
H     -5.6530      9.1903     11.6463
H     -8.2603     10.2280      8.6767
H     -7.8974      7.0204     10.6165
C     17.5614     10.8576     17.6718
C     -2.7437      8.5478      4.9566
O      1.8695      8.7962      4.7575
C     -1.6087      7.8680      7.0786
C      8.8339      7.7535     12.2520
C     20.2715      7.5614     13.1301
C      6.4416      6.8768     -0.7555
H      5.0366      3.5545      0.6100
H     18.2496     10.4390     15.0345
H      1.8527     -0.7853      2.9738
H     -4.5956      5.8678      8.0545
C      7.3400      6.4452     10.9901
C      7.6882      5.4726      3.4720
H     21.8164      9.0676     14.8135
C     -1.0151      6.7221      5.1024
H     15.2829      8.7340     20.3837
H     -8.0152     10.8022     10.4441
H     15.4175      7.1381     13.1025
C     -3.2610     11.1744      7.8688
C      5.9648      5.3810      9.0385
C     15.9925      7.7361     17.9039
C      4.7206      5.8390      0.4660
C     18.0398      9.4534     15.3333
H     -3.8192      7.6765      4.8940
H      8.6666      7.5389      2.8767
H     -9.4405     14.1753     10.7098
H     -6.7299     12.4905      9.8634
H     17.8474     12.5304     16.7081
C      0.2340      3.6420      9.0646
C     13.0225      8.3817     12.3510
C      1.7496      1.8226      7.8263
C     -0.6116      6.3403      1.5784
H      5.6352      7.2803     -1.2559
H     -2.3135      2.4625      4.2754
H     -7.2311     10.5751     12.3032
C      9.9839      7.2574     12.9957
O     13.6357     10.6430     12.7638
C     -6.5246      9.0350      8.4716
C     16.3904      8.4911     20.2281
C     -9.4060     14.4044      9.6602
C      2.4394      2.1335      4.2391
H     -0.8092      9.9271      0.1794
H     -7.2249     12.5795      6.8940
C      4.0509      3.4594      3.0100
H     -4.0428     10.0297      6.1976
C     -2.1403      8.3505      0.5261
C     11.0576      6.9027     11.8771
H     -2.0404      9.5034      7.5588
C      5.1630      2.2318      5.0060
H      3.8314      0.3952      5.4922
H     -4.2181     13.7587      8.5019
C    -10.2922     12.4127      9.1291
C     -8.0085     11.3247      8.2844
C     -2.1246      5.1310      3.5232
C     16.7101      9.6720     19.3875
C      2.5393      3.7174      2.6064
C     -7.8595      7.7004      9.7276
H     -9.9950     12.0522     10.0406
H     15.9961      8.6221     14.0558
H     -3.3747      4.8760      1.9048
H      1.4438      3.5630     -0.3247
O      5.6642      6.9895      6.6238
C      0.6052      8.2361      4.5116
H     17.6872     10.2358     20.0444
C     -2.5048      8.8601      3.5696
C     -2.1596      7.7562      2.7985
H     -7.2125      8.8391      7.5538
C     -2.7395      7.6660      7.7073
H      1.9901      1.9838      5.2348
H     13.4751      8.4155     10.5312
H      6.8462      2.0035      1.2502
H      0.9646      3.8668      9.8479
C      3.0587      1.7814      0.9572
C     -0.0997      8.4637      1.8997
C     -0.4521      3.1909      1.5413
C     -0.1029      4.0932      4.4159
C     -5.5931     10.9511      7.1842
H      2.3920     -0.3425      4.5763
H     -3.7815      7.8399      7.1245
H     15.9271     10.1866     18.8353
H      0.8868      6.8664     -0.1217
O      0.1371      9.5975      6.2538
C     -6.7539     11.7108      7.6202
C      0.6817      7.4450      6.7813
C     15.0587      7.8278     13.9477
H     15.6070      8.1303     15.7732
C      0.3539      7.6599      2.9202
H     -4.2954     12.5609      9.8593
C      2.7112      0.9691      3.4613
C      0.5326      2.6499      7.9473
C     -2.2869     10.4077      7.0185
C     -2.4612      3.1591      5.0606
C     18.1968     12.0265     17.7833
C     -9.8835     16.8682      9.8069
C      0.7732      2.4657      1.2515
C     -1.2313      7.7896      1.5686
C     -8.9515     12.3599      8.5064
N      1.8616     -0.1535      3.7749
H      4.2109      1.3693     -0.6281
C      3.1584      1.3337     -0.4344
O     16.9881      6.7343     15.5062
C      9.6354      6.2451      1.0694
H     18.7693      9.1474     18.8501
C     -2.9757      4.3900      2.8463
C     -2.5783      7.4180      9.0755
H      1.4503      1.4029      6.9513
H      8.0122      4.7401      0.7389
H     -5.5703      8.5262      7.0703
C     -1.8528      9.3676     -0.2312
H     -7.8274      7.3503      8.6541
H      2.2274      8.3465      8.7461
H     -1.1077      9.6305      4.0607
H     15.1332      8.7251     11.3383
H      2.4495      2.1925     -0.9578
H     -0.9069      3.6589      9.4104
C     14.6801      7.3798     15.3498
H      4.9662      5.2436      9.6801
C     14.0054      8.3397     11.4106
C     -6.9161     10.6712     11.2937
H    -10.5657     16.7695     10.5772
H     15.6824     11.0713     17.1437
C      4.2545      8.4520      4.2974
C      7.6996      6.9132      2.6813
C     20.9548      9.4576     14.4505
C     18.9220      8.4745     15.1251
C      4.1027      6.1551      6.3571
C      1.8239      4.9513      2.6477
C      6.0608      5.7508      0.0755
C      5.5476      7.5237      4.2627
C      8.0611      6.5528      1.1810
C      4.3087      5.0503      7.4625
C      1.4344      5.3136      1.2826
H     -2.6862      6.0029      5.6187
C      6.1908      7.3054      5.5149
H      0.7487      1.7773      2.1630
C      7.1607      5.2684      1.1395
H     -0.1824      3.1301      3.8845
H     -2.2144      6.2792      9.2733
O      7.4647      7.2493      5.5380
H      9.3374      8.9608     12.0583
H     -0.1928      9.5544      2.4779
H      2.5838      4.9304     -0.4506
H      5.0292      5.9026      4.4933
C     12.2415      7.4395     11.6088
C     15.5003      6.2056     15.8340
H      1.5635      7.1226      9.6124
C     -1.5945      4.3952      4.4785
C      0.5072      7.0126      5.2382
H     -8.9102      8.1334     10.0503
H      2.6897      1.2458      5.8435
C      1.4428      5.8956      4.8625
H      2.6225      0.0246      1.7283
H     16.8070     11.5926     15.6286
H     -0.6796      8.3403      8.6368
C     -4.8919      6.7718      8.5390
C     -8.5886     13.7640      8.5090
C      6.4233      7.5589      3.1150
C     -2.9205      9.7577      5.8152
C     -0.1859      6.1290      2.8631
C     -1.4668      6.5228      3.5836
H     16.8130      7.9947     21.2446
H      4.0447      6.5657      0.0409
H     -2.2759      3.0157      6.1414
C    -10.7701     13.7969      9.1440
C      0.6884      5.2666      3.6722
C      5.0278      3.3236      1.9738
H     -4.3806      8.4659      9.2599
H     -2.4035     11.9353      8.3443
H     -5.6644     10.7037      6.1986
C      2.1197      7.3318      8.7229
C     -1.4958      5.3376      5.7628
C      3.1454      0.7777      2.0801
C      1.3844      5.0087      6.0824
C      1.8935      6.7053      7.4107
C      2.0679      4.2992      0.2152
H     -1.4512      5.7829      1.1514
H      4.1692      2.2585      1.3729
H      2.8159      0.3794     -0.4417
H     -1.2834     10.8481      6.9107
H      5.0454      0.9818      3.7928
C     -0.5451      9.0212      5.0337
C     -3.8645      7.4185      9.5886
H      4.3224      5.0063      1.1514
H     21.3775     10.0291     13.5668
C     -4.5239     11.6763      7.9941
H     10.1714      6.1089      2.1043
H     -3.0654     10.2963      4.7651
H     -6.9620     14.7202      9.3732
C     -0.2903      7.8871      7.6085
C      0.4270      4.1268      5.7591
O      8.3654      5.3390      4.5344
C     -1.5081      7.9757      5.6166
C     -6.2492     14.5429      7.0483
C      5.2067      1.9034      6.2943
C      3.2364      0.3961      6.3089
H      7.8968      6.7518      4.9244
H     -5.8098     15.5578      7.2544
H      5.5844      3.8265      7.8826
H     -4.3387      9.4602      7.9478
H      0.6469     10.3146      5.9768
H     19.0095     12.4515     18.3944
C      1.4717      5.4127      7.4772
H     -0.3638      4.3169      1.6284
C      4.0391      5.4992      4.9874
C     -9.5442     15.7764      9.0838
H     21.2372     10.5465     14.7983
C      8.5304      7.1660     10.9689
H      3.9518      5.4529      8.4403
H     10.6740      6.7435     10.7702
H     -5.8706     13.2751      6.9728
C      3.7386      2.8950      4.5111
C     17.6661      9.4775     18.2848
C     -6.3409     12.6475      8.7857
C     -5.3708      9.3760      7.7325
C      5.6993      4.8020      7.7051
C     -7.0346     13.9414      8.4974
H      0.0503      4.7601      8.8780
H     -1.8213      7.7261      9.7356
H      0.6367      2.0584      0.2769
H     19.3333      9.5578     13.2454
H     -0.3184      2.3105      5.9907
C     14.0517     10.0284     13.8073
H     -9.8621     17.8881      9.3702
H     -3.4164      9.3844      3.3822
