273

C     32.5524     -3.8223     13.9506
C      4.1406      1.3630      7.0364
C      3.0956      3.1654      0.9609
C      7.2612      5.1322      2.7065
H      9.4196     -8.7533      2.2020
C      7.6186      3.6288      2.6818
C     16.0980     -8.9003      5.3830
C     19.4631     -3.1473     11.0026
C     28.6782     -5.8251     19.2572
C      6.0010      2.0519      4.1300
C     18.9802     -4.3046     10.0320
C     26.7209     -4.1314     13.5293
N     -0.2733      3.1407      6.4366
C      1.2427      5.9812      0.1272
O     11.4517    -11.1312      2.3966
C     16.1135     -9.0417      7.0584
H      0.6585      6.1772     -0.7132
C     28.6835     -6.8968     17.1447
C     29.3478     -2.3049     16.6145
H      1.8360     -0.1194     10.3841
H     11.2698    -10.4266      4.7628
H      6.0341      5.1669      3.1329
H     20.4601     -1.7311      9.8854
C     29.7683     -3.9435     16.3762
H     28.6440     -2.0129     11.9661
H     20.3866     -3.3251     11.7320
H      7.8034      3.0779      3.4548
H     25.6952     -5.8496     10.8289
H     11.8125     -8.5244      6.2249
C      3.0731      2.4704      7.4824
H     -3.9474      9.4008      1.8923
H      7.0422      1.9441      4.3457
O     27.8361     -2.5380     14.8070
C      8.6735      0.4231      8.1741
C     19.2936     -6.8218     10.0259
H      2.3234      6.1366      9.2459
C      6.2066      2.9265      2.9449
H     19.4812     -7.4831      7.3661
H     18.9482     -2.7356     11.7817
H      5.1501     -1.4551      6.3360
H     16.9281     -4.2853     10.6804
C     30.3562     -2.3097     17.5987
C     10.0261     -4.8102      4.9464
O      1.8727      8.4429      4.7039
C     -1.8190      7.4608      7.0209
C     21.3955     -4.7466     12.1943
C     33.2318     -4.8455     13.1376
C      6.1131      7.3048     -0.4351
H      4.8099      3.9837      1.3149
H     30.3812     -2.9336     14.6110
H      0.9301      0.1900      3.2775
H     -5.0479      4.8711      9.7019
H     28.4821     -2.2974     17.2690
C     19.3714     -5.6436     10.9897
C      7.7789      6.0662      3.7293
H     33.1588     -1.5281     13.7727
C     11.9207     -6.5514      4.8530
H     27.8182     -4.6785     20.5171
H     19.0939     -2.2179      9.2463
H     30.1369     -7.0146     14.2819
C     10.3961     -1.4217      6.9841
C     18.3598     -6.6596      9.0182
C     28.7327     -5.3961     17.8074
C      4.6770      5.6949      0.2218
C     30.5315     -3.8417     15.2028
H      9.5393     -5.7788      5.1151
H      8.5742      8.0391      3.8036
H      3.9626      1.7410     10.6420
H      7.3429     -0.2705      9.4250
C     -0.1441      2.8960      8.8892
C     26.0401     -4.5674     11.9688
C      1.5448      1.6750      7.0774
C     -0.5397      6.3957      1.2716
H      5.1121      8.0530     -0.7482
H     10.2508     -9.2089      5.6334
H      5.6921      4.2698      6.3733
H     18.9583     -0.7073     10.6808
C     22.7124     -5.2397     12.8159
O     27.7112     -2.0584     12.6229
C     19.4600     -4.2888      8.6622
C     28.7894     -4.6631     20.2503
C      3.4516      1.3072      9.6869
C      3.3343      1.4994      4.7742
H     -2.3221     10.4879      1.7282
H      4.5662      6.6689     -0.0588
C      3.9288      3.3978      3.0518
H      8.5182     -3.6655      5.8997
C     -2.2253      8.4778      0.8062
C     23.5773     -5.7594     11.6915
H      1.0182      9.6966      5.9683
C      5.2063      2.8440      5.1847
H     30.9451     -0.6393     16.2605
H      7.7954      3.3715      1.5272
H      9.4229      1.1532      7.7849
C      3.1031     -0.7754      8.4701
C      5.5325     -0.9811      7.2519
C     11.1123     -7.9619      3.0364
C     29.1331     -3.4195     19.5370
C      2.7940      3.5624      2.3912
C     17.4270     -3.7727      9.9733
H      2.3454     -1.0418      7.8743
H     28.8302     -5.4423     13.4275
H     10.6773     -7.9987      0.9703
H     25.7493     -3.7104     11.5218
H      1.9363      3.6870     -0.8187
O      5.2577      6.9943      6.4182
C      0.5763      7.9343      4.4166
H     29.6733     -3.0143     20.4457
C     10.5594     -4.5320      3.5781
C     10.9497     -5.6007      2.8173
H     18.8335     -3.2952      8.2688
C     -3.0036      7.2157      7.6028
H      1.2583      2.4102      4.9435
H     28.3898     -5.0065     12.0374
H      6.1662      2.4766      1.9907
H     -1.0217      3.6456      8.7555
C      3.7508      1.7024      1.1071
C      0.0943      8.4768      1.8794
C     11.3369     -9.8223      1.3182
C     -0.3012      3.6435      3.8464
C      7.9167     -1.2912      6.8828
H      1.4398      0.4690      4.8810
H     -3.9644      6.9643      6.8873
H     28.3767     -2.4953     19.1224
H      1.7100      6.7575      0.9278
O      0.3259      9.3665      6.3061
C      6.7243     -0.6531      7.4986
C      0.5518      6.8107      6.6822
C     27.9635     -4.9208     14.0000
H     28.6154     -4.4383     16.1384
C      0.6974      7.6518      2.7996
H      9.4785      0.3371      9.2246
C      2.6983      1.2207      3.4849
C      0.3237      2.4984      7.4140
C     10.2563     -2.9085      6.8217
C     10.3852     -9.8655      4.7656
C     31.2302     -1.3028     17.3984
C      3.3793      3.7039      9.4940
C     12.6858     -9.5031      0.9147
C     -1.3407      7.7346      1.5192
C      4.4966     -0.7228      8.3481
N      1.7243      0.2583      3.9615
H      2.9672     -0.2164      0.2146
C      3.2852      0.8625     -0.0638
O     29.8433     -6.6996     15.3654
C      9.2682      6.6448      0.8302
H     31.0424     -3.4128     19.5098
H      1.3302      0.8848      7.7129
C     10.5166     -8.5614      1.9231
C     -3.0015      7.1637      8.9853
H      1.6005      1.0663      6.2086
H      7.9667      5.0869      0.4989
H     20.8162     -3.3990      7.1709
C     -2.8612      9.3857      1.6612
H     17.0935     -4.2522      9.0419
H      1.7338      6.9757      9.0318
H     10.4340     -7.6323      6.1658
H     -0.8205      9.4647      4.3878
H     27.4181     -5.5553     10.6461
H      3.1988      0.6050     -1.1677
H      0.7385      3.5884      9.1407
C     27.9293     -5.4007     15.4932
H     17.5382     -6.0147      9.5029
C     27.5125     -4.7345     11.3827
C     19.4549     -1.7938     10.1114
H      3.1727      3.3238     10.4949
H     29.5400     -1.7488     15.6061
C      4.2635      8.2952      4.6254
C      7.8154      7.4196      3.2833
C     32.8764     -2.3280     14.5149
C     31.7999     -4.3627     15.1780
C      4.1011      6.1621      6.3237
C      2.0504      4.7386      2.3414
C      6.1362      6.1590      0.3790
C      5.4905      7.4193      4.3025
C      8.0082      6.9592      1.2877
C     17.3050     -8.0717      7.2308
C      1.8246      4.9230      0.7872
H      8.3025      7.0985      5.7496
C      6.0643      7.2934      5.5642
H      9.1683      5.7262      0.1821
H     13.2073    -10.2638      0.9668
C      7.2980      5.6438      1.2047
H     -0.3816      2.6766      3.2430
H     -2.1533      6.4904      9.3399
O      7.2904      7.6682      5.9269
H     21.8488     -3.8295     11.9749
H      2.0253      2.7042      2.5962
H     -0.4350      9.3235      2.5640
H      4.3194      5.3683     -0.7397
H      4.8949      4.9836      4.7074
C     24.8445     -5.4500     11.4666
H     -5.2833      6.2802      8.2635
C     28.5827     -6.7302     15.8335
H      0.7583      5.2546      8.7146
C     11.3017     -8.7498      4.3182
C     13.3249     -6.2714      5.0102
H     17.0671     -2.8573      9.8673
H      3.2451     -0.1675      6.0589
C     14.2115     -7.3785      4.5229
H      2.3979      0.2765      2.0728
H      0.1261      6.8454      8.3279
C     -5.1010      5.9410      9.3195
C      4.7145      0.6552      8.5949
O      6.0706      4.0350      5.3918
C      6.3645      7.5373      3.1998
C      9.5752     -3.5309      5.6837
C     -0.0561      6.1140      2.6709
C     11.4784     -6.7149      3.4400
H     29.7068     -5.0886     20.8180
H     27.8409     -3.7705     10.9921
H      9.6175     -9.8555      4.0252
C      2.4560      0.0979      9.3929
C      0.6063      4.9394      3.3008
C      4.9401      3.5815      2.4631
H      0.8685      4.2741      7.3919
H     21.2523     -5.0061      8.0640
H     11.1393     -0.9628      6.0557
H      7.9788     -2.0075      6.0782
C      1.6108      6.1001      8.5461
C     11.3018     -7.8125      5.4732
C      3.1825      0.9390      2.1136
C     14.5671     -8.5873      5.3655
C      1.7953      6.0466      7.0075
C      2.4403      3.9116      0.0200
H     -1.0578      5.2963      0.9768
H      4.8334      1.8893      1.3465
H     11.0717     -1.1319      7.9202
H      2.1636      1.1711      0.1149
H     11.7249    -10.5161      2.9377
H      9.8439     -3.3393      7.6751
H      5.3575      1.0869      4.0681
C     -0.4271      8.7840      5.0096
C     -4.1049      7.1445      9.8645
H      5.2882      6.9215      2.5807
H     31.8619     -2.1071     15.0022
C      9.0770     -0.7595      7.1825
H      9.6974      6.5222      1.7695
H      9.6726     -2.7639      4.7721
H      6.1946      1.5976      9.7295
C     -0.5302      7.0466      7.5147
C      0.7330      3.2604      5.0647
O      8.9028      6.0409      4.4914
C     -1.5250      7.5973      5.5248
C      6.2088      2.0600      7.6538
C      5.4224      2.2386      6.6786
C      3.7872      0.8422      5.7528
H     19.3777     -5.4581      8.1808
H     18.7264     -8.8100      8.6658
H     21.6647     -3.3500      8.9077
H     11.4265     -3.1185      7.3770
C      1.7707      4.5993      6.8788
H     10.4169    -10.3926      0.7925
C      3.9239      5.3307      5.0773
C      3.2186      2.4726      8.9235
H     33.8777     -2.4183     14.9343
C     20.9366     -5.5771     10.9621
H     22.8890     -6.1759     10.9227
H      7.2950      2.4494      7.5008
C      3.8722      2.9446      4.7369
C     30.3398     -3.5469     18.5701
C      7.2093      0.1718      8.5087
C     20.9278     -4.0040      8.1959
C     18.4473     -7.8882      8.0462
C      6.0516      1.1944      8.7004
H     -0.1340      2.0425      9.4983
H     -2.5448      8.0249      9.6272
H     13.0827     -8.4798      1.4660
H     31.8051     -3.3494     13.2515
H     12.7669     -8.7777      0.0720
C     27.5196     -2.8590     13.6674
H      2.6241      4.4302      9.1630
H     10.5615     -3.5927      2.7970
