265

C      7.1244      9.0113      0.8395
N     10.5853     10.6528      1.2530
C     16.8800      1.6434      7.0716
C     14.9791      2.4857      1.6733
C     20.4033      5.0793      2.4809
H      9.9185      6.9392      2.3364
C     20.1862      4.0494      3.3352
C     16.2856      3.9881      5.5622
C     16.1841      7.0626      6.5687
C     18.8479      2.0347      3.8379
C      5.6295      8.1903      9.8331
C     14.0753      8.6219      0.7631
N     12.7334      2.5007      6.3956
C     13.3333      6.0781      0.6227
O     11.5143      2.3798      1.1011
C     15.8886      4.0849      6.9924
C     15.4449      6.1846      4.5242
C     16.2228     10.2342      3.6708
H     14.1444      0.9426      9.6012
H      9.0837      3.9990      5.4180
H     16.9280      7.1999      2.2714
C     16.8732      8.9590      3.3011
H      3.7132      7.0453     10.0719
H      6.1790      8.3992     10.7286
H     21.3044      3.8931      3.4605
H     13.0110      7.3649     -1.8910
H     11.6846      5.2369      6.6762
H      8.8383      3.0147     10.1287
C     15.8501      2.7710      7.5662
H     20.0951      1.6197      3.8022
O     13.9285     10.8437      1.8141
C      8.0222     12.7104      8.5966
C      7.2282      5.8267      9.5681
H     15.6802      0.1244      6.4483
H     15.3865      6.4574      9.5993
C     19.0757      3.2506      3.0263
H      6.1411      4.4452      7.2338
H      4.9478     11.2433      9.5633
H      4.9143      6.6718      8.5653
C     17.1604     10.9950      4.6172
C      9.9998      8.6103      5.2317
O     14.7221      8.6306      4.8555
C     11.3706      7.9587      6.9178
C      8.8646      8.3307     -1.0529
C      7.7004      7.9034      0.0002
C      6.7728      6.8828     12.0338
H     17.6993      4.5106      1.7525
H     16.8928      9.6726      1.4755
H     15.2085     -1.3711      3.4693
H      7.8083      6.7489      7.6630
C      7.8962      3.2470      9.6850
C      7.3466      6.5314     10.8210
C     21.0118      6.2977      3.2487
H      8.7321      6.5807     15.0302
C     11.7824      6.6292      4.9497
H     16.4908      8.0226      8.4757
H     15.1681     -0.6725      2.0747
H     14.8259      6.7739      0.6108
C      9.5276     11.8609      7.0277
C      6.1797      4.9004      9.2974
O      5.6459      2.9240     10.5956
C     15.8519      7.5977      5.1144
C      4.7106      5.7743     12.5368
C     17.4456      8.7972      1.9796
H      9.5404      7.8705      5.7349
H     20.4034      7.4313      4.4943
H     16.5992      1.1199     10.5172
H     18.1333     13.1902      4.0249
C     13.0820      3.3134      8.7412
C     13.5372      8.6344     -0.5066
C     14.4224      1.6853      7.6365
H     11.2012      8.0627      9.8381
C     12.1263      6.3158      1.4761
H      6.0053      7.6985     11.7355
C     10.1568      7.5896     -0.5592
O     15.5195     10.4299      0.2404
C      6.3410      8.3303      8.6351
C     16.6867      8.2879      7.2461
C     16.2859      1.4998      9.4936
C     15.7497      1.5297      4.7230
H     10.4687     10.6147      2.1664
H     10.2384     10.2596     -0.6973
H      5.7287     12.2291      6.7555
H     16.2015      3.9018     10.7086
C     16.6433      3.2934      3.1784
H      9.0260      9.4220      7.0682
C     10.6974      8.3741      0.4950
C     11.2823      7.1668     -1.3795
H     11.0112     10.9872      5.6038
C     18.2770      2.3092      4.9954
H     16.9345     -0.0640      5.5768
H     10.6945      2.7312      0.6427
C      2.3269     12.4978      8.4338
C      4.6641     11.0556      8.6534
C     10.8461      4.9759      3.4149
C     16.5250      9.5824      6.5661
C     15.2831      3.6435      2.8217
C      4.8864      6.9523      9.7161
H     16.1266      7.8691      0.6018
H     22.5890      5.6205      4.2542
H     14.8993      4.9496     -0.8905
O      5.8280      6.3574      6.8306
C     13.5106      8.0634      4.3928
H      4.6092     10.0112      8.6812
C      9.9064      8.6046      3.6663
C     10.5151      7.5118      3.0670
H      6.0957      7.8172      7.6723
C     10.3130      7.7176      7.6885
H     15.2234      3.9136      5.0873
H     13.2311      8.9373     -2.5316
H      5.0989      4.3924     11.6007
H     12.8933      4.2163      8.3842
C     16.0556      1.5074      1.4725
C     12.9234      8.4932      1.8968
O      4.7575      4.1880     12.5154
O      7.0220      4.3564     11.6581
C     12.5109      3.1487      1.8295
C     12.5299      3.7656      4.2814
C      7.1340     10.6606      7.4765
H      9.5032      7.5204      7.1299
H     15.4764      9.8297      6.1096
H     13.3522      6.2898     -0.4062
O     12.9333      9.9526      5.8011
C      5.8478     11.5055      7.8650
C     13.7526      7.4043      6.6288
C     15.2067      7.6563      1.0617
H     15.5946      8.2653      2.9033
C     13.6247      7.6418      2.8776
C     15.3982      0.3871      3.8099
C     13.0823      2.1534      7.8633
C     10.1625     10.9110      6.2002
C     10.1117      3.4515      5.3905
C     17.8031     12.3171      4.7798
C     16.3848      4.0982      9.7319
C     13.6309      2.4544      1.1637
C     11.6126      7.9214      1.4094
C      3.7283     12.3158      8.4690
N     14.9783     -0.7137      4.4253
C     16.4824      1.7274      0.0822
O     16.9392      6.1795      2.5714
C      9.4999      6.3608     13.1110
H     18.7286      9.9349      5.4565
H     12.5323      1.4552      8.3192
C     10.1364      4.8237      2.1931
C     10.1635      7.9268      9.0541
H      8.3003      3.9060      8.7629
H     14.4280      1.1106      6.7016
H      7.3117      5.5290     11.5950
H      7.9042      9.3642      9.4351
C     10.4339      9.7154      0.4435
H      4.7354      5.9982     10.2306
H     14.2730      7.6496      9.0722
H     11.7757      9.7048      4.1436
H     14.7050      9.7242     -1.8312
H     16.1951      0.8179     -0.5049
H     13.9205      3.3423      9.3484
C     15.0057      7.4650      2.6102
H     15.9071      2.3611     -0.4102
C     13.6902      9.3606     -1.6576
H      6.3480      2.7171     11.2436
H     15.3469      9.8954      4.1965
C      4.2824      8.1165      4.4927
C     20.4483      7.4755      3.3984
C      8.1887      9.7899      1.4859
C     18.5374      8.1753      2.0075
C      4.3895      5.8585      6.4808
C     14.4789      5.0617      2.5524
C      6.0616      6.0796     13.1887
C      5.4564      7.0761      4.3088
C      8.3410      6.7630     13.7399
C      3.9797      4.9979      7.4770
C     14.1315      5.1372      1.1970
H      9.9527      6.0166      6.0488
C      6.3117      6.5632      5.4170
H      9.9642      5.8080     13.8272
H     13.4268      1.6370      0.5639
C      7.2318      5.8364     13.9795
O      7.4981      7.2479      5.9007
H      8.3379      9.4606     -1.1316
H      7.7842     10.3158      2.6358
H     14.8707      3.2284      3.7613
H     12.4675      9.3986      2.2347
H     15.9676      4.1606      0.6928
H     17.2938      4.9802      4.1372
C     12.4982      7.4605     -1.0042
H      6.3875      5.3910      5.0700
C     15.4071      6.2076      3.0448
H     13.7390      6.0459      8.9073
C     11.0278      4.2101      4.6544
C     13.1762      6.8793      5.4188
H     17.8775      8.3990      7.4194
H     14.8039      2.1097      5.1019
C     13.9941      5.6212      4.9019
H      1.4122     11.8417      8.8380
H     14.0834      0.3476      2.0198
H     15.8594     10.6209      2.7419
H     12.6206      7.7652      8.5620
C      8.1771      6.5034      8.6523
C     17.2027      0.6708      8.4691
C     19.0163      7.4546      3.1118
C      9.4544      9.7156      5.9062
C     12.6893      6.2516      2.8358
C     11.3908      6.5361      3.5399
H      4.0258      6.0479     11.8370
H     10.7319      3.2585      6.4371
C     14.8715      0.9388      8.8289
C     13.3927      5.0902      3.6193
C     17.8333      3.7801      2.5447
H     14.7531      4.9833      8.1909
H      7.9826      8.4251      7.6343
C      6.6580      3.8968     10.2659
H     10.4092     12.5935      7.2131
H      7.1183     10.4805      6.4059
C     14.5626      6.8181      8.7582
C     11.0989      5.6700      5.7861
C     15.3416      0.3764      2.2902
C     13.8118      4.7060      5.9348
C     14.9594      6.5906      7.2126
C     14.8338      4.5168      0.1118
H     11.1427      5.2067      1.5422
H     16.9845      1.6411      2.4598
H     17.4365      2.1773     -0.3466
H      8.9218      5.6702      8.4139
H      7.5388      2.4567      9.2615
H     18.7016      1.0612      3.1663
C     12.3029      8.9942      4.8908
C      8.9486      7.4625      9.4620
H      3.9359      6.1151     13.5414
C      8.3889     11.8780      7.6126
H      9.8924      3.6750      1.9405
H      8.6535     10.0478      5.5034
H     19.1345      1.4773      9.2645
C     12.7221      7.7793      7.5500
C     13.2534      3.4808      5.5511
O     21.6643      5.7969      4.3028
C     11.4014      8.2231      5.5025
C     19.2109      1.5792      7.3455
C     18.1757      2.0371      6.3505
C     16.2919      0.8018      5.8325
H      8.3285      6.4655      5.6528
H     20.2408      2.2133      7.3415
H      5.2576      3.3520      8.3639
H     12.3931      9.0776      6.3576
H     18.7562     12.0765      5.1950
C     14.7531      5.1037      7.1502
H     13.1897      4.1942      1.3078
C     16.6399      5.2172      5.0517
C     16.0853      2.7920      9.0199
H      8.7615      9.0064      1.7243
C      8.3883      7.5826     10.6762
H      4.1664      5.0790      8.6289
H     11.1009      6.5116     -2.2374
H     19.5532      0.5949      6.7483
C     16.7763      2.6950      4.5846
C     17.5554     10.0601      5.7704
C      6.6731     12.4657      8.8526
C      7.5769      9.3342      8.2079
C      5.5867      4.4053      8.1228
C     18.5777      1.0603      8.5476
H      6.3462      9.5561      0.2455
H      9.1070      5.7626     12.2460
H     12.7965      1.6639      5.8285
C     14.5508     10.1662      0.8894
H     15.8543      4.8447      9.6966
H     10.2224      9.3794      2.7804
265

C      6.9548      8.8330      1.3537
N     10.8182     10.9040      1.3982
C     16.9041      1.6380      7.0728
C     14.7919      2.7411      1.6583
C     20.6294      5.1118      2.5162
H      9.9344      6.8502      2.5480
C     19.9658      4.1590      3.3419
C     16.1651      3.7703      5.3888
C     16.2174      6.9253      6.4865
C     18.9175      2.0432      3.5131
C      5.8478      7.9095      9.5333
C     13.6376      9.1238      0.8079
N     12.7587      2.7584      6.5608
C     13.0548      5.9706      0.4459
O     11.4938      2.3484      1.0663
C     15.9943      3.7746      6.9288
C     15.5213      6.0718      4.3972
C     16.5622     10.2598      3.6596
H     14.2985      1.0375      9.4119
H      8.8502      3.6577      4.9168
H     17.5712      6.6518      1.9937
C     16.8950      8.9489      3.2856
H      3.8563      6.6596      9.8944
H      6.7313      8.0289     10.2355
H     20.2067      3.5663      4.1134
H     12.7564      7.2890     -2.3747
H     11.4665      4.9269      6.6749
H      8.4556      4.0508     10.1110
C     15.7450      2.6166      7.5596
H     19.8854      1.3113      3.3845
O     13.9511     11.1096      1.6652
C      7.9832     12.6506      8.5057
C      7.3148      5.7813      9.8115
H     15.5691      0.1649      6.2931
H     16.0634      6.6842      8.8771
C     18.9702      3.2499      2.8715
H      6.2417      4.5699      7.2644
H      4.5647     11.4438      9.3457
H      4.7532      6.0194      8.5509
C     17.0798     10.8833      4.8533
C      9.9795      8.4031      5.1237
O     14.7786      8.3303      4.8634
C     11.5465      8.0896      7.0984
C      8.6798      8.3238     -0.9228
C      7.5250      7.9333      0.0269
C      6.6845      7.0032     12.0068
H     18.0397      3.8583      1.1184
H     17.9382      9.8719      1.5517
H     14.5794     -1.2572      3.7797
H      7.4903      7.2016      8.1032
C      7.8485      3.1432      9.6579
C      7.5570      6.3741     11.0311
C     20.9361      6.0199      3.5300
H      8.4626      7.3018     14.8787
C     11.7285      6.7052      5.1563
H     16.0836      8.3499      8.2846
H     15.3932      7.5568      0.2155
C      9.7866     11.6714      7.0837
C      6.4870      4.7299      9.3728
O      5.5145      2.8378     10.7946
C     15.9924      7.4395      4.9293
C      4.7464      5.5467     12.7363
C     17.7861      8.7133      2.1682
H      9.2440      7.4815      5.4422
H     21.2941      7.9123      4.3990
H     16.4252      1.0691     10.6043
H      6.1208     12.0532      9.5647
H     17.2275     12.8041      4.0995
C     13.2609      3.5205      8.9210
C     12.9564      8.9378     -0.6799
C     14.4520      1.5685      7.6115
H     11.1849      8.1267      9.6929
C     12.0435      6.4644      1.2576
H      5.8158      7.2643     11.4088
C      9.8832      7.5958     -0.3642
O     15.5480     10.4301      0.3635
C      6.2207      8.5900      8.4926
C     16.5706      8.2434      7.3839
C     16.2782      1.3681      9.4442
C     15.7455      1.8088      4.7947
H     11.2071     10.0059      1.8099
H     10.1719     10.4223     -0.5112
H      5.7374     12.0334      6.6884
H     16.6919      3.3643     10.6889
C     16.7516      3.4577      3.1068
H      8.5429      9.7498      6.3195
C     10.8063      8.7514      0.6953
C     10.8965      7.2481     -1.1858
H     11.6376     10.8313      6.2538
C     18.0277      2.3318      4.9462
H     11.3061      2.6773      0.1918
C      2.4064     12.2367      8.8307
C      4.8175     11.0700      8.3176
C     10.8044      5.1305      3.3240
C     16.5526      9.3248      6.5467
C     15.2958      3.5956      2.7836
C      4.9288      6.7621      9.4702
H     16.1867      8.7209      1.4886
H     14.8553      4.9907     -0.7978
O     18.4658      6.5207      6.6604
C     13.5331      8.0261      4.3919
H      4.4834     10.3742      7.4232
C     10.1676      8.5787      3.5746
C     10.6867      7.4795      2.8186
H      5.8507      8.7151      7.5845
C     10.3955      7.9606      7.6394
H     15.1406      3.5821      5.3295
H      5.3912      3.7019     12.0117
H     12.6550      3.8075      8.1331
C     15.8892      1.5986      1.4764
C     12.9973      8.6240      2.0340
O      4.5021      3.9505     12.6279
O      6.9195      4.1983     11.7358
C     12.4193      2.7863      1.7697
C     12.1710      3.6858      4.4729
C      7.2709     10.6558      7.4744
H      9.4190      7.5948      7.1834
H     15.9072     10.1145      6.3241
H     13.2986      6.6859     -0.2471
O     13.0064      9.8798      5.8285
C      6.0839     11.6450      7.6905
C     13.6316      7.0411      6.6579
C     15.1857      8.1059      1.2370
C     13.6026      7.6617      2.8894
H      8.6277     13.5409      8.6725
C     15.3148      0.5834      3.8919
C     13.2306      2.3768      7.7927
C     10.5017     10.7940      6.2995
C      9.9002      3.5705      5.0508
C     17.5898     12.5002      4.8766
C     16.4960      3.8763      9.8440
C     13.6078      2.1701      1.2701
C     11.6967      7.9302      1.5065
C      3.5251     12.2335      8.0707
N     14.8676     -0.4846      4.3762
C     16.5751      1.6404      0.1205
O     16.8329      5.9812      2.3847
C      9.2629      6.3581     13.0141
H     18.6999      9.6640      6.1021
H     12.2835      1.8780      8.3467
C     10.3611      4.8867      2.1124
C     10.2460      8.1122      9.0939
H      7.4266      3.0626      8.7274
H     14.4026      0.8745      6.7929
H      7.9070      4.5437     11.6103
H      8.0237      9.7862      9.3223
C     10.7266     10.0093      0.4262
H      5.4121      5.9204     10.1329
H     11.8820      9.8011      4.2759
H     14.2176     10.3584     -1.5420
H     15.9991      1.3815     -0.9496
H     14.1174      3.9141      9.3389
C     14.9783      7.4713      2.4287
H     16.6746      2.5892      0.1200
H     13.2516     10.9481      2.3147
C     13.9949      9.4080     -1.6393
H      5.6221      1.9239     11.2786
H     15.4314     10.4219      3.3270
C     17.2469      7.9594      4.2737
C     20.6858      7.3688      3.4823
C      8.2991      9.5248      1.7086
C     18.9790      7.9926      1.8926
C     17.0495      5.6598      6.4234
C     14.5362      5.0741      2.6067
C      6.1763      5.9282     12.9692
C     18.5426      7.3267      4.4560
C      8.1440      6.8914     13.7928
C     17.0911      4.8511      7.6183
C     14.1359      5.2436      1.0393
H     10.2076      6.1835      6.1020
C     19.1640      6.5868      5.5529
H     10.1909      5.8812     13.2718
H     13.0276      1.2982      0.7129
C      7.0094      5.7098     14.0283
H     12.4973      2.5276      3.7982
O     20.4245      6.8857      6.4081
H      8.8318      9.4256     -0.9628
H      8.6671      9.7460      2.7654
H     14.5217      2.9234      3.4752
H     12.3991      9.4177      2.4506
H     15.7948      4.1671      0.4765
H     17.6090      4.8785      4.7473
C     12.2038      7.7625     -1.4611
H     19.1643      5.5561      5.0183
C     15.4364      6.1779      2.9009
H     14.8458      5.5799      9.2400
C     10.8506      4.5557      4.5807
C     13.2634      6.8570      5.3644
H     17.5997      8.0961      7.4375
H     14.8456      2.2329      5.1418
C     14.1739      5.7587      4.8676
H      2.1614     11.2252      8.3850
H     14.2695      0.3831      2.2091
H     16.8202     11.0196      3.0922
H     12.8365      7.6611      8.6377
C      8.1400      6.6232      8.8118
C     16.9120      0.6625      8.1850
C     19.2434      7.6741      3.2616
C      9.5903      9.7958      5.6401
C     12.7882      6.4475      2.9583
C     11.4933      6.5944      3.6564
H      4.5714      5.8432     11.6454
H      9.6488      3.2899      6.1365
C     14.8202      0.5610      8.7257
C     13.4102      5.1894      3.6256
C     17.8170      3.8891      2.2870
H     14.6589      4.2776      8.0476
H      8.4082      8.9563      7.8836
C      6.6786      3.5773     10.4148
H     10.1549     12.7497      7.2704
H      7.1565     10.3726      6.4349
C     15.0177      6.5782      8.7710
C     10.9784      5.5056      5.7523
C     15.2925      0.4549      2.3395
C     13.9047      4.8480      5.9502
C     15.0053      6.3410      7.1560
C     14.8610      4.3361      0.1064
H     11.0791      5.2183      1.3498
H     16.8669      1.7917      2.0302
H     17.5105      1.0372      0.3368
H      8.7272      5.8837      8.4447
H      8.3582      2.2336      9.7661
H     18.0886      1.6261      2.8481
C     12.3081      8.8214      4.7975
C      9.1976      7.3954      9.5217
H      3.9923      5.8317     13.5170
H      9.1279      8.4443      3.1135
C      8.4596     11.8540      7.5685
H     10.1141      3.7020      2.0498
H      9.2804     10.4004      4.8149
H     18.5332      1.9877      9.1670
C     12.7954      7.4281      7.5762
C     12.9505      3.8498      5.7895
O     21.6369      5.5230      4.6302
C     11.3782      7.9766      5.6906
C     19.1642      1.4082      7.2666
C     18.1019      2.0866      6.2854
C     16.0049      0.9852      6.0529
H     21.1575      7.1561      5.6540
H     19.9443      2.0699      7.3109
H      5.2132      3.2882      8.6828
H     13.2085      9.4840      6.8200
H     18.4889     13.2011      4.9518
C     14.7726      4.6567      7.0636
H     12.3591      3.8282      1.5861
C     16.6977      5.2005      5.0519
C     16.2402      2.7233      8.9283
C      8.5721      7.3113     10.8777
H     16.7623      4.7564      9.6650
H     11.0349      6.1533     -1.2569
H     19.4587      0.7609      6.3143
C     16.8372      2.7713      4.2978
C     17.6646      9.8237      5.8476
C      6.5693     12.5523      8.7233
C      7.4365      9.5023      8.4197
C      5.5998      4.2992      8.0881
C     18.5342      0.9684      8.4575
H     12.7632      3.0813      9.7324
H     14.1323      3.6398     -0.2891
H      6.3187      9.6151      0.9401
H      9.1622      5.6814     12.0643
H     12.7046      1.9949      5.8781
C     14.3828     10.2788      0.8224
H     15.5677      3.9435     10.4502
H     10.6152      9.5301      3.6733
