277

C      7.0037     21.7236      0.7989
N     10.6198     10.7847     14.3261
C      3.9396     14.3158      7.2011
C      2.0451     15.2405      3.0695
H      1.1864     14.0165     10.1902
C      7.4026     18.0936      2.6802
H      9.8179      7.1465      2.5533
C      7.3099     16.6102      2.7149
C      3.3383     17.0792      5.5527
C      6.3526     23.7335     -0.9772
C      3.2678     20.3903      6.4341
C      5.9554     15.2061      4.0906
C      6.2717      9.7261      9.0760
C     13.9318      8.4893     13.4196
N     13.4563      2.5014      6.0709
C     13.7305      6.2215     13.6323
O     -1.1058     15.3615      1.3688
C      3.4124     17.0741      7.0886
H     12.9268      6.7727     10.5196
C      2.7927     19.3227      4.5191
C      4.1796     23.4089      3.1090
H     -2.8103     15.8001      6.1495
H      4.4464      6.0326     13.4181
C      4.2842     21.8302      3.1422
H      5.2843      7.1007      8.6417
H      7.2473     24.5072     -1.1816
H      4.2752      5.6367      8.3202
H     -0.7814     18.6117      6.4080
H      6.1084     14.5726      9.2433
C      3.2218     15.7218      7.8186
H      6.8213     15.0090      5.0135
O     14.6270     10.2909     15.2765
C      7.7322     12.2603      8.9757
C      6.2641      5.9114      9.8422
H      1.9873     12.7067      8.9713
H     15.8221      5.9517      9.1093
C      6.0879     16.2581      3.1914
H      5.7542      3.3762      8.0894
H      5.8371     24.0677     -0.0557
H      4.1892     11.6684      9.5007
H     15.3257      7.5311      9.0210
C      4.8595     23.8052      4.3770
C     10.2176      9.0864      5.0167
O      1.9857     21.6091      4.9549
C     11.3848      8.2209      7.0086
C      8.6296      8.0582     12.0995
C      7.6569     20.5778      0.1172
C      6.6188      6.6633     12.1029
H      4.7645     17.6042      1.8176
H      3.9822     21.9851      1.3949
H      7.0913      7.0858      9.4300
C      7.8854      2.7043      8.7436
H      0.6607     13.8168      2.5659
C      7.4540      6.3492     11.0041
C      8.2030     18.8789      3.5724
H      8.5393     20.9282      2.5013
C     -1.2062     19.8122      5.1409
H      2.9691     21.6104      8.0399
H      4.9817     23.4373      2.1697
H      3.6078     18.8388      2.4165
H      3.9966     16.9858     10.9935
H     15.2705      5.7965     13.6492
C      9.5994     11.6362      7.5765
C      6.5014      4.7981      9.1907
C      3.3422     20.6241      4.9298
C      5.6189      4.3751     12.7284
C      4.6420     21.3645      1.8562
H      9.4883      8.4826      5.2976
H      8.4171     20.8319      4.2449
H      3.2645     13.6161     10.6106
H      6.8854     10.2079     10.0007
H      6.1593     25.2432      5.3618
C     12.7645      3.5892      7.8083
H      7.8700     23.6669      1.1775
C     13.4779      8.6381     11.9724
C      1.7608     15.2028      8.2848
H     10.6171      6.7037     10.3884
C     12.4755      6.2781     14.4016
H      5.6961      7.3011     11.9451
H     -2.1556     15.2726      4.4740
H      7.4001     19.7978      6.7201
C     10.2433      7.5500     12.4296
O     15.9862     10.2838     13.5047
C      6.9920      8.7527      8.2302
C      3.7684     21.6519      7.2301
C      3.2565     14.1451      9.5256
C      2.7867     13.4167      5.2203
H      8.9197     22.6578      0.5439
H     11.5066     11.3965     14.2537
H      6.4779     13.1825      6.2706
H     -2.5756     18.8090      6.6219
H      4.2799      6.6109     10.3164
C      3.8349     16.7698      3.2477
C     10.8942      8.4693     13.3469
C     11.0879      6.8228     11.4155
H      8.6552      1.7010      9.1020
C      4.9436     15.1918      5.2683
H      2.2724     11.0021      9.3366
H      4.9014     25.7744      3.9866
C      2.4164     11.7035      8.5478
C      4.5185     11.0455      7.4128
C     -1.9851     17.9033      3.5739
C      3.8237     22.9877      6.5037
C      2.4683     16.6309      2.8246
C      5.2951      6.9155      9.8266
H      1.8248     10.9115      8.2004
H     15.7069      6.9407     13.2763
H      8.2122     19.5410      5.4667
H     15.4827      3.8139     12.7575
O      5.6012     19.9483      6.3811
C      0.7427     21.0785      4.5520
C     10.4051      8.8952      3.4990
C     10.7228      7.6186      2.7178
H      8.8131     10.3332      8.6302
H      7.7998     16.2111      3.6504
C     10.2298      8.5160      7.5711
H      1.6041     14.9167      4.1021
H     11.3315     11.5034     12.1779
H      4.2514      5.6550     11.7119
C      3.2733     14.3487      2.6226
C     12.8349      8.5922     14.4288
O      4.2761      4.7373     12.3811
O      7.5803      3.8593     10.9053
C      0.1377     15.7306      1.9728
C     -0.3452     16.9470      4.1514
C      7.1603     10.8413      7.1866
H      2.8308     23.2446      6.4041
H     12.2641      9.6997      4.2310
H     12.3371      8.2188     10.4575
O     13.2498      9.7080      6.1041
C      5.8778     10.9093      8.1566
C     13.5416      7.3874      6.8232
C     14.7202      7.1700     13.5917
C      0.9224     20.7281      3.0531
H      7.8590     13.0447      8.3623
C      2.1326     12.6586      4.1945
C     13.6857      2.7231      7.4369
C     10.3484     10.7499      6.8372
C     -2.5460     16.2168      5.1407
C      5.2072     25.0446      4.7413
C      3.3663     17.0983     10.0412
C      0.8832     14.7215      2.4304
C     11.6255      7.7855     14.4093
C      3.9054     11.9108      8.4874
N      1.4150     11.5213      4.5754
C      3.1179     14.7890      1.1682
O      5.2435      6.1802     13.9898
C      9.5745      6.5471     13.4284
H      6.3387      9.0782      6.2212
C     -2.3884     17.1733      2.6028
C      9.9220      7.3856      8.8047
H      7.9332      2.5541      7.7033
H      1.3876     13.6335      6.8858
H      8.2654      9.0870      6.3794
C     10.8711      9.8450     13.3410
H      5.7905      7.7463     10.2696
H     14.1117      6.7544      9.2520
H     14.4670      9.0858     10.2095
H     13.5590     10.3254     15.4892
H      3.3601     15.9871      0.8864
H     -1.3569     16.3942      1.7931
H     12.5027      3.4120      8.9841
C      2.1924     20.4646      2.5547
H      3.6455     14.3094      0.1990
C     14.0586      9.5060     11.2307
C      6.7612     22.6108     -0.3890
H      7.8565      5.4620     11.5203
C     10.9453     10.4386     12.1149
H      1.3424     11.2987      5.5207
C      4.4936     21.2713      4.4814
C      8.0699     20.5210      3.3054
C      8.0662     22.4641      1.2794
C      6.1397     21.2872      1.9743
C      4.3933     19.2228      6.2810
C      1.7362     17.9081      2.6195
C      6.2918      5.7132     13.2355
C      5.7741     20.6897      4.4494
C      8.3322      6.6555     13.8231
H     15.0360      9.9756     11.3546
C      4.7644      5.2705      7.4910
C     14.6696      5.0510     14.0078
H      9.1466      8.6792      7.0542
C      6.4900     20.2357      5.4384
H     12.5823      1.8682      5.9521
H     -3.1877     17.5018      1.8989
C      7.3858      5.5401     14.1458
H     -0.6210     16.0472      3.7101
O      7.8997     20.2595      6.0204
H      7.6107      8.3033     10.5371
H      8.6802     22.2896      2.0976
H     13.9659      2.8184     13.4055
H      4.6008     18.5475      4.2210
C     12.5341      7.6158     11.3672
H      6.0656      4.0176      7.0602
C      2.8029     19.2345      2.9753
C     -1.6298     17.3234      4.7871
C      0.2745     19.7816      5.3466
H      5.7822      9.1327      9.8259
H      2.8415     15.1920      5.2361
C     14.3573      5.9363      4.8480
H      2.7119     12.2564      2.1858
H      3.5751     24.2235      2.5689
H      9.5627      6.3226      8.4001
C      7.2827      7.5073      8.4379
C      4.3169     13.4212      8.5352
C      6.5946     20.9050      3.2374
C      9.9732     10.4402      5.2998
C     12.7336      6.3265     15.9232
C     -1.5768     19.4831      3.6931
H     10.0795     11.7365      8.5177
H     13.7146      4.3266     12.1595
H      4.3881     20.3301      1.9225
H      5.4198      3.4036     13.1319
H     -3.2953     16.8528      5.0017
C      1.8670     14.3409      9.1929
H     11.3987     10.8389      7.0516
C      0.5951     18.2009      3.6663
C      4.9959     16.8968      2.6921
H     14.2215      4.6540      7.8978
H      4.7197     21.3949      7.5519
C      7.4144      3.7851      9.7157
H      9.6599     11.0961     14.2327
H      7.1897     11.4760      6.2373
C     15.0685      6.7784      8.6391
C     -1.6179     18.6031      5.9157
C      2.8040     12.9794      3.0135
C     14.3949      4.7397      5.5480
C     14.7614      6.7908      7.2553
C     14.5186      3.9396     13.1639
H     11.6881      5.9111     13.9355
H      4.1661     14.6548      3.2677
H      9.4168      8.8599     10.0838
H      1.8689     14.2722      1.0431
H      7.8137      6.5865      8.2151
H      6.9438      2.4595      8.9957
H     10.7014     10.7418      4.5723
H      5.8039     14.1745      3.6409
C     12.5479      9.0521      5.0944
C      9.4403      7.8911      9.9129
H      5.9536      4.1114     11.7617
H      9.1630      9.0167      3.4828
C      8.2505     11.2047      8.0175
H     -2.7487     16.0539      2.7324
C     12.5700      7.7976      7.5539
C     13.5400      3.6398      5.2897
O      8.5373     18.4784      4.8379
C     11.3548      8.3258      5.6314
C      6.2111     13.9431      7.0975
C      4.9814     14.6208      6.3578
C      2.4740     13.6513      6.4867
H      7.3066     14.3049      7.2867
H      5.0599     15.6455      9.0307
H      8.2739     12.0164      9.8789
H     14.2558      9.6003      5.7639
H      3.7436     13.4202      5.0520
H     12.7528      8.0908      8.5697
C     14.9461      5.1977      6.9776
H      0.2770     16.7651      1.8165
C      3.9597     18.4790      5.1173
C      3.7395     15.6662      9.1558
H     12.7826      6.0455     12.9522
C      8.2202      7.4568     10.8903
H      2.3513     16.8608      9.9159
H     11.3541      5.6485     11.9023
C      3.6741     15.9052      4.8667
C      4.3983     22.9207      5.1960
C      6.3317     12.2973      9.1040
C      7.2898      9.3760      6.9677
C      5.7584      4.3919      7.9334
C      5.6897     13.5825      8.4299
H     11.8520      3.6619      7.0752
H      7.6007     22.2660     -1.1705
H      5.6914     12.0327     10.0002
H     10.3491      5.8109     13.3468
C     14.9492      9.7762     13.9742
H      3.4524     18.0459      9.6197
H     10.9897     10.0306      3.1673
277

C      6.8747     21.6430      0.7374
N     10.6566     10.8589     14.2493
C      3.8062     14.2926      7.1436
C      2.1537     15.3015      3.1408
H      0.9389     14.0176     10.0694
C      7.3616     18.1011      2.6441
H     10.0594      7.1762      2.1767
C      7.3182     16.6980      2.7846
C      3.2712     17.1611      5.5788
C      6.3071     23.7827     -0.9980
C      3.2259     20.4726      6.5709
C      5.9623     15.2132      4.2173
C      6.3686      9.7410      9.0700
C     14.0570      8.5442     13.4203
N     13.5104      2.4883      6.0400
C     13.5977      6.2270     13.6745
O     -1.1714     15.3748      1.4827
C      3.2628     17.0467      6.9994
H     12.8206      6.6497     10.9084
C      2.7039     19.3518      4.4905
C      4.2089     23.3395      2.9575
H     -2.5574     15.8695      6.0679
H      4.6496      5.7246     13.5540
C      4.1798     21.9838      3.0738
H      4.8166      6.6118      8.8008
H      7.1952     24.4379     -1.7451
H      3.9123      5.6897      8.1818
H     -0.7356     17.7666      6.1770
H      5.9294     14.0980      9.6358
C      3.2461     15.6810      7.7684
H      7.0213     15.4106      4.6523
O     14.5415     10.2661     15.2982
C      7.8374     12.2107      9.0546
C      6.3491      5.9739      9.9828
H      1.8641     12.4623      8.9620
H     15.9483      6.2601      8.9430
C      6.0880     16.2898      3.2405
H      5.8706      3.3192      8.1650
H      5.9152     24.4702     -0.1704
H     15.2283      7.9106      9.1811
C      4.9275     23.7679      4.3068
C     10.1960      9.1145      4.9521
O      1.9388     21.7082      4.9572
C     11.3455      8.3432      7.0436
C      8.6897      8.0241     12.0258
C      7.6776     20.5761      0.1182
C      6.7111      6.6373     12.1981
H      4.9494     17.3738      1.6470
H      3.9388     21.5466      1.2478
H      6.7056      7.0769      9.3012
C      7.9399      2.6871      8.7990
H      0.2652     13.9606      2.8132
C      7.3800      6.3102     10.9611
C      8.1435     18.9714      3.5718
H      8.5911     20.7423      2.3294
C     -1.2473     19.8006      5.1799
H      2.8797     21.8519      7.8831
H      5.1129     23.5103      2.2160
H      3.8671     18.9078      2.6558
H      4.2935     17.1095     10.7084
H     15.5512      5.4507     13.5204
C      9.6233     11.6541      7.6025
C      6.6121      4.7312      9.1707
C      3.2525     20.5273      5.0076
C      5.7032      4.3349     12.7803
C      4.6641     21.2364      1.9661
H      9.2695      8.6383      5.2799
H      8.2252     21.0107      4.3999
H      3.2038     13.6861     10.5671
H      6.9980     10.0469      9.9824
H      5.8475     25.2109      5.6497
C     12.7086      3.5297      7.8108
H      7.6025     23.5707      1.3010
C     13.4423      8.4686     11.8933
C      1.8466     15.2096      8.0756
H     10.8611      6.5143     10.3742
C     12.4913      6.3415     14.5501
H      5.8767      7.2125     12.1994
H     -2.0104     15.4094      4.5222
H      7.3316     20.1145      7.1045
C     10.1310      7.4923     12.5095
O     16.0344     10.1350     13.5211
C      7.0855      8.7365      8.2188
C      3.8396     21.5998      7.2666
C      3.3062     14.2086      9.4546
C      2.7889     13.4575      5.2877
H      8.8606     22.4435      0.2406
H     11.2678     11.6583     14.0879
H      6.1315     12.7410      6.7350
H     -2.8087     18.5433      6.3888
H      4.3445      7.1078     10.4636
C      3.7980     16.6906      3.2954
C     10.9009      8.3319     13.4318
C     10.9804      6.7216     11.5473
H      8.6808      1.9170      8.9895
C      4.9570     15.3030      5.2119
H      2.3526     10.9914      9.4606
H      5.0480     25.8943      4.0561
C      2.4490     11.6571      8.6638
C      4.5301     11.1195      7.4488
C     -1.8846     17.9881      3.5919
C      3.8978     22.9822      6.5830
C      2.5119     16.6617      2.8331
C      5.2247      6.9884      9.7998
H      1.8603     10.9720      7.7742
H     15.6995      7.0382     13.0678
H      8.0068     19.0697      5.2841
H     15.2641      3.7467     12.5349
O      5.4323     19.8772      6.2764
C      0.7271     21.0289      4.4064
C     10.3623      8.9067      3.5008
C     10.7729      7.7679      2.6537
H      8.1618     10.1221      8.6111
H      8.1702     16.4301      3.3991
C     10.2349      8.4618      7.6115
H      1.8838     14.9886      4.2886
H     11.3544     11.4331     12.2007
H      4.5426      5.4742     11.7763
C      3.1657     14.3641      2.6373
C     12.9147      8.6006     14.4057
O      4.3229      4.6117     12.4346
O      7.5594      3.7970     10.9191
C      0.1639     15.7542      1.8786
C     -0.1844     16.9068      4.2074
C      6.9885     10.9236      7.2243
H      2.8715     23.3194      6.4352
H     12.2824      9.9225      4.3785
H     12.6281      8.0161     10.2102
O     13.1045      9.6480      6.1592
C      5.9151     10.8597      8.1595
C     13.6318      7.2680      6.8502
C     14.7620      7.3510     13.5237
C      0.8989     20.7293      3.0321
H      8.2008     12.9140      8.3526
C      2.0975     12.7151      4.1299
C     13.6472      2.7928      7.3781
C     10.2548     10.8170      6.8121
C     -2.6144     16.1571      5.1619
C      5.1618     25.0966      4.7754
C      3.3403     17.0106      9.9631
C      0.9123     14.7603      2.4145
C     11.5649      7.7746     14.4650
C      3.8816     11.9906      8.4286
N      1.4728     11.5375      4.5419
C      3.0135     14.6036      1.1461
O      5.2196      6.3575     13.9482
C      9.5763      6.5708     13.4284
H      6.5086      9.1273      6.0670
C     -2.3567     17.0835      2.6932
C      9.9417      7.4423      8.6440
H      8.0372      2.7174      7.4409
H      1.6046     13.9258      7.1874
H      7.9631      9.0431      6.4559
C     10.8215      9.7826     13.3311
H      5.7873      7.7949     10.0589
H     14.2174      6.8289      9.4727
H     14.1207      9.1877     10.0800
H     13.4418     10.5649     15.3419
H      3.3984     15.6109      1.1101
H     -1.9791     16.2101      1.9193
H     12.7397      3.3325      9.1475
C      2.1932     20.4388      2.4025
H      3.3144     13.9556      0.4547
C     14.1693      9.4590     11.2066
C      6.8402     22.6698     -0.5596
H      8.1889      5.5250     11.2849
C     10.9805     10.3848     12.0732
H      1.5091     11.4203      5.5128
C      4.3239     21.1851      4.5025
C      8.0760     20.4181      3.3982
C      8.0520     22.5180      1.2817
C      6.1920     21.1828      1.9210
C      4.2824     19.1796      6.3886
C      1.7161     17.9601      2.6178
C      6.2832      5.6642     13.2854
C      5.8412     20.7103      4.3891
C      8.3654      6.6411     13.7924
H     15.2760      9.7970     11.1324
C      4.6373      5.2445      7.4957
C     14.6173      5.1885     14.0077
H      9.3829      8.9115      7.0172
C      6.4218     20.2051      5.4898
H     12.6376      1.8657      5.7314
H     -2.8593     17.4033      1.8147
C      7.4780      5.5721     14.2125
H     -0.6378     16.2879      3.2575
O      7.8153     20.3042      6.0589
H      7.2949      8.1750     10.6025
H      8.4802     22.7223      2.2366
H     14.2720      3.0139     13.4911
H      4.7437     18.2031      4.5113
C     12.5035      7.5972     11.2336
H      6.4071      4.3510      7.0794
C      2.8039     19.2256      3.0259
C     -1.7005     17.4517      4.7944
C      0.3972     19.8492      5.3624
H      5.8980      9.3514      9.9256
H      3.2598     15.0339      5.2349
C     14.2453      5.8617      4.8144
H      2.4930     12.1991      2.4993
H      3.2321     24.0104      2.8585
H      9.5002      6.5877      8.1875
C      7.3100      7.4419      8.4949
C      4.3595     13.3299      8.5616
C      6.5934     20.8911      3.1845
C     10.0014     10.4557      5.4229
C     12.7397      6.4930     15.9667
C     -1.5843     19.5111      3.6470
H     10.3430     11.6385      8.4325
H     13.7191      4.4659     12.3365
H      4.3279     20.3242      2.0233
H      5.5609      3.7485     13.5624
H     -3.5020     16.5579      5.0040
C      1.8434     14.3534      9.2475
H     11.2686     10.7191      6.9139
C      0.6264     18.1289      3.5893
C      4.9844     16.9168      2.7097
H     14.2666      4.8403      7.9968
H      4.8423     21.4334      7.4577
C      7.4508      3.7810      9.6878
H      9.7142     11.2102     13.9737
H      7.1236     11.2126      6.1829
C     15.0401      6.8347      8.7637
C     -1.6266     18.5255      5.8566
C      2.6804     13.0849      3.0452
C     14.4706      4.7517      5.7038
C     14.8481      6.7892      7.1380
C     14.5312      4.0285     13.2366
H     11.7792      5.5210     14.6631
H      4.0358     14.7890      3.4893
H      9.5084      8.9664      9.7631
H      1.9668     14.6082      1.0497
H      8.0906      6.6352      8.0897
H      7.0120      2.0733      8.7791
H     10.7434     10.6489      4.8141
H      6.0335     14.3830      3.6692
C     12.5901      9.0148      5.1403
C      9.3699      7.8098      9.8342
H      6.3250      4.0943     11.8433
H      9.6864      9.5573      3.0267
C      8.3021     11.2226      7.9836
H     -2.8291     16.0562      2.7956
H      8.9146     10.9630      5.3123
C     12.5941      7.7065      7.5665
C     13.5625      3.6286      5.3211
O      8.5346     18.4460      4.7717
C     11.4294      8.3472      5.6233
C      6.2237     13.9382      7.1910
C      5.0061     14.5704      6.4252
C      2.5274     13.6519      6.6541
H      7.1711     14.1393      7.0355
H      4.7820     15.7300      9.0167
H      8.4937     12.1235      9.7371
H     14.1012      9.2013      6.0927
H      3.8342     13.0169      5.1494
H     12.9988      8.0429      8.5448
C     14.8184      5.2252      7.1579
H      0.3746     16.8763      1.7824
C      3.8672     18.5160      5.1432
C      3.7645     15.6963      9.1963
H     12.8319      6.1567     12.7394
C      8.2201      7.4881     10.8104
H      2.0969     16.9762      9.7830
H     11.2111      5.6561     12.1135
C      3.7999     15.9884      4.8240
C      4.4792     22.8357      5.1747
C      6.3687     12.2149      9.0934
C      7.1635      9.3131      6.9835
C      5.8572      4.3276      7.8587
C      5.8455     13.4570      8.4778
H     12.0344      3.8145      6.9387
H      7.6651     22.5694     -1.2647
H      6.0721     12.1681     10.1564
H     10.4135      5.7427     13.4629
C     15.0288      9.7064     13.8888
H      3.3557     17.9403      9.3913
H     11.0961      9.6225      3.0297
