287

C      6.8313      8.6907      0.4650
N     -2.0544     10.4147      1.3928
C      4.0960      1.6063      6.7760
C      2.1491      2.4875      2.3044
H      1.3452      0.9867      9.6774
C      7.6225      5.0806      2.4522
H     -3.0370      7.2372      2.3076
C      7.5965      3.7865      2.8524
C      3.4315      4.1730      5.6375
C      3.2403      7.4168      6.3044
C      6.3466      2.0961      3.9581
C     -6.8757      8.3048      8.6539
C      0.7106      8.7240      0.8991
C     -2.6307     12.2239     -0.6243
C     -4.4059     13.4999      0.7673
N      0.8059      2.7524      6.0990
C      0.5998      6.2774      0.7496
O     -1.4854      2.5986      1.3523
C      3.3140      4.2343      7.1167
H      0.3955      6.9075     -2.0484
H     -5.3198     12.9492      0.6972
C      2.6621      6.2162      4.2808
C      3.7927     10.4542      3.3441
H     -2.7961      3.4904      6.8182
H      4.4090      5.5662      2.5283
C      3.9662      9.0013      3.0247
H     -8.1130      6.8547     10.2229
H      1.7589      4.0351      9.9409
H     -1.6073      5.3008      7.2836
H      5.6218      1.5976      8.5845
C      3.0462      2.9237      7.6509
H     -1.3439     11.5046     -2.1495
H      7.2780      2.5507      4.6471
O      1.2697     10.2188      2.8200
C     -5.2924     12.6346      8.8898
H      6.6125     10.9046      0.0354
C     -2.3882     11.2305     -1.7368
C     -6.7636      5.8332      9.4283
H      3.1435     -0.0162      6.1437
H     -8.5501      5.5691      8.5170
C      6.2683      3.1516      2.8912
H     -7.5322      3.3575      7.5974
H      3.8377     -1.0996      9.2169
H      2.0524      7.9280      9.2373
C      4.4235     10.9623      4.5042
C     -2.7979      8.9168      5.2007
O      2.1967      8.6196      4.5302
C     -1.4453      8.6421      7.2207
C     -4.2995      7.5575     11.8221
C      7.4909      7.4925     -0.2505
C     -6.7266      6.7966     12.0202
H      4.9931      3.6626      1.3841
H      4.6390      9.8382      1.2457
H      1.7001     -2.0111      4.4177
H     -5.5941      6.3829      8.5643
C     -5.2922      2.5923      8.3911
H      0.8121      1.1650      1.5595
C     -6.0571      6.1598     10.7272
C      8.0570      6.1270      3.2579
H      8.2720      7.3191      1.9353
C     -1.1559      6.8462      5.4547
H      3.1202      8.7446      8.1441
H      3.8646     11.1457      2.5328
H     -7.7415      6.4482     14.0771
H      2.2371      5.7585      0.3643
C     -3.2664     11.7916      7.6884
C     -6.7055      4.5931      8.9305
C      3.0481      7.6399      4.8878
C     -4.0124     14.7319      0.7877
C     -7.8940      4.9091     12.4916
C      4.7698      9.2155      1.9235
H     -3.7458      8.5335      5.5576
H      8.3551      8.2335      3.5200
H      3.5236      1.1133     10.3575
H     -7.1466      9.3681      8.5119
H      5.8041     12.8592      4.4209
C     -0.5996      3.0128      8.1100
H      8.6086      9.1551      1.9462
C      0.5446      8.8541     -0.5479
C      1.8422      2.3215      7.9958
H     -1.9226      6.7521     -2.4800
H     -1.8880      8.9424     -1.6077
C     -0.8034      6.2659      1.6605
H     -7.5690      7.6095     11.7039
H     -1.2215      2.4906      5.9020
H      4.9939      9.4809     -0.4678
C     -2.7887      7.2834     -0.1649
O      2.8283      9.8500      1.0293
C     -5.6891      8.1918      8.1797
C      3.8915      8.6842      7.2440
C      3.2710      1.2984      9.2296
C      2.6811      1.1953      4.6345
H     -4.7005     11.9307     -0.4964
H     -2.0474     11.2322      1.0000
H      6.5773     -0.1322      6.6033
H      2.8332      6.5268      9.0981
C      4.0746      3.6979      3.2207
C     -2.0758      8.1983      0.5886
C     -1.5501      6.8144     -1.2135
H     -4.8464      1.8624      9.1835
C      5.3442      2.1474      4.9647
H      1.6557     -0.8868      9.4148
H      4.3544     12.6777      3.6989
C      1.9892     -0.6006      8.3277
C      4.6912     -1.8484      7.4790
C     -2.3350      5.1917      4.0307
C      3.9438      9.9001      6.5428
C      2.5708      3.6814      2.5953
C     -7.7513      7.1253      9.2342
H      1.4897     -1.0621      7.3970
H     -1.7205     12.3479     -0.3267
H      0.1224      3.5264      0.2123
O      5.8824      6.6320      6.3781
C      0.6856      8.0405      4.4721
H      5.0298     -1.3326      6.5133
C     -2.4229      8.8071      3.6872
C     -2.2554      7.5524      3.1880
H     -4.3375     10.3992      9.2151
H      8.2402      3.2178      3.4178
C     -2.4430      8.2581      8.0977
H     -4.8049     15.2104      1.5853
H      2.4386      3.8894      5.0168
H     -0.6688     10.3518     -1.0273
H     -9.4206      4.1544     13.7401
C      3.1761      1.4491      2.1825
C     -0.2077      8.5036      2.0220
O     -9.3179      4.6340     12.6779
O     -5.2388      3.6154     10.6895
C     -0.2956      2.9547      2.0059
C      0.3394      3.8774      4.0766
C     -5.7568     10.6361      7.7137
H     -3.4664     10.6324     -2.1183
H      3.0295     10.4601      6.3811
H     -0.2712     10.2484      4.5189
H     -0.4247      8.3854     -2.4764
O      0.8285     10.1325      6.3075
C     -6.9632     11.0360      8.3864
C      0.7337      7.4693      6.7903
C      1.5151      7.4933      1.0394
C      0.5114      7.6844      3.1315
H     -5.0477     13.4971      8.3321
C      2.2382     -0.0155      3.9109
C      0.5395      2.7726      7.4419
C     -2.6923     11.4960      6.4329
C     -2.2064      3.2652      5.9553
C      4.8182     12.4077      4.5658
C      2.9396      3.5466     10.0754
C      0.9008      2.2859      1.7868
C     -1.5428      7.7392      1.8354
C      3.6102     -0.8819      8.2074
N      1.9379     -1.0934      4.6965
C      3.7328      1.6790      0.6462
O      3.7823      6.1643      2.0122
C     -3.3797      6.0337     13.2985
H      5.6951      9.7707      5.8305
C     -2.7443      3.9773      3.0245
C     -3.0645      8.3706      9.4892
H     -4.7924      3.2318      7.5791
H      1.8882      0.9004      6.6277
H     -4.4341      3.5070     10.1293
H     -4.7158      9.1219      6.4698
C     -2.2667      9.4337      0.2955
H     -8.4938      6.9569      8.3737
H      1.0414      6.4718      8.9952
H     -0.5827      9.5259      2.3063
H      1.3694      9.1715     -2.6123
H      2.9189      1.7639     -0.0800
H     -1.5909      3.5801      2.7541
H     -0.5259      3.4886      9.2930
C      1.8645      7.4821      2.4279
H      3.6939      2.6969      1.0033
C      1.4955      9.3090     -1.3236
C      6.1167      9.8744     -0.6168
H     -6.1040      5.1456     11.3445
C     -1.7902      9.9946     -1.1311
H      1.0673     -1.0028      5.2774
C      4.2891      8.6009      4.3735
C      7.8915      7.4614      2.9470
C      7.9821      9.6464      1.2479
C      5.8877      8.3783      1.6722
C      4.3597      6.1343      6.3805
C      1.8801      4.8946      2.3322
C     -7.1244      5.9314     13.2730
C      5.8537      7.7654      4.1539
C     -4.6318      6.3360     13.5965
H      2.1342     10.2406     -0.9372
C     -8.5088      4.9765      7.4377
C      1.5410      5.1042      0.8678
H     -3.1273      7.6530      7.3170
C      6.5345      7.3550      5.4734
H      1.9077      1.9605      4.8228
H     -3.0709     15.3902      0.5338
H     -3.5377      4.2794      2.2543
C     -5.8008      5.4292     14.0139
H     -0.7751      4.0520      4.1648
O      7.7426      7.3277      5.4335
H     -4.1523      8.6808     11.5842
H      8.7881      9.5525      0.6225
H      0.4245      2.9806      3.8265
H      1.3024      4.7275     -0.9474
H      4.8153      5.3523      4.5956
C     -0.4526      7.6719     -1.5952
H     -6.5419      4.0911      6.5827
C      2.5780      6.2079      2.7833
C     -2.1050      4.7073      5.4166
C      0.3291      6.9671      5.3727
H      3.6045      1.4689      4.0703
C      1.1028      5.8611      4.8914
H      2.2705     -0.7261      1.6418
H      0.3400     10.4424      3.0684
H     -2.3625      8.2586     10.1908
C     -4.6989      6.9823      8.2282
C      4.2541      0.5950      7.9391
C      6.3400      7.6075      2.9082
C     -3.4154     10.5301      5.6455
C     -0.1275      6.2565      3.0256
C     -1.4192      6.3727      3.6630
H     -2.4573     12.4447      8.0701
H      1.9361      3.1855     -0.1356
H     -7.4605      3.8994     12.1223
H     -2.5208      2.8846      4.9303
C      2.0299      1.0607      8.6117
H     -1.6598     11.6661      6.3164
C      0.7332      5.1333      3.5242
C      5.1899      3.8339      2.5253
H      1.6398      4.7780      8.2147
H      5.1288      8.2333      7.5790
C     -6.0570      3.3915      9.2647
H     -2.4852     10.2654      2.4394
H     -6.2419     11.2769      6.9172
C      1.9639      6.9208      8.8027
C     -1.8389      5.7162      6.3574
C      2.1214      0.0184      2.5534
C      1.0903      5.0239      6.2270
C      2.0034      6.8799      7.1851
C      1.0985      3.9326     -0.1470
H     -1.4197      5.3196      1.4195
H      3.7281      0.8877      2.9413
H     -3.6674      9.2539      9.4906
H      4.6784      1.4296      0.1225
H     -4.1689      7.0791      7.1465
H     -5.8025      1.7588      7.7751
H     -3.5252     10.8610      4.6710
C     -3.8634     12.4724     -0.1264
H      6.9374      1.2410      4.1824
C     -0.1574      9.3072      5.2590
C     -3.8707      7.1961      9.4926
H     -7.9669      5.2624     11.3808
H     -3.4160      9.1802      3.3321
C     -4.5776     11.4287      8.3875
H     -2.9877      3.0127      3.5417
H     -4.4360     10.8032      5.9525
C      0.0692      8.2127      7.6884
C      0.7157      3.8876      5.5263
O     -3.5913      6.0164      4.2163
C     -1.4238      8.4333      5.8251
C      6.3522      0.7875      6.8250
C      5.5018      1.7900      6.2672
C      2.9405      1.0034      6.0448
H      7.4359      0.9898      6.6901
H      4.8306      2.9362      9.0362
H     -5.0946     12.5953     10.0417
H      0.7792      9.6512      7.0981
H      4.6387     13.1394      5.1542
H      0.6961      8.4272      8.5460
C      2.1667      5.2424      7.1718
H     -0.5346      3.8222      2.3793
C      3.7721      5.4842      4.9956
C      3.6145      2.7095      8.9827
H      8.2078     10.7173      1.5066
H      0.3588      6.6456     -0.3456
C     -4.7766      7.0159     10.5832
H      2.9184      3.0478     10.9755
H     -1.4000      5.8387     -0.7798
C      4.5687      3.3545      4.6582
C      4.7087      9.7815      5.2792
C     -6.6649     12.3944      8.9556
C     -5.2217      9.2547      7.3684
C     -7.1937      4.3589      7.5271
C      5.7221      0.4788      8.2207
H     -1.6820      3.0950      8.2414
H     -3.2946      9.7863     -0.0844
H     -6.8572     12.6460     10.0485
H     -3.2606      5.0932     13.8687
C      1.6534      9.8036      1.5748
H      3.5749      4.2472     10.6271
H     -1.5591      9.5059      3.4639
