287

C     20.1474     -4.1283     13.8138
N     11.1742     10.5226      1.3282
C      3.7736     14.1714      7.0702
C     15.1542      2.1676     15.0700
H      1.0326     14.0788      9.2181
C     20.9236      5.1313     15.5499
H      9.8297      6.8450      2.5664
C     20.6664      3.6800     15.8956
C     16.2958      4.2078     18.6064
C     19.7757     -2.6725     11.5892
C     16.2208      7.2931     19.6459
C      6.3087     14.9735      4.1321
C      6.4035      9.5239      8.7140
C     13.6567      8.8902     13.6304
C      9.3660     11.8793      0.0459
C      8.4378     14.0954      0.7055
N      0.3553     15.5326      5.9225
H     20.4154     -3.5740     11.4022
C     14.0075      6.4081      0.6858
O     12.0937      2.6499     13.5482
C     16.2343      4.2965     20.1061
H     12.9148      7.2069     10.6146
H      7.9062     14.8891      1.2316
C     15.7411      6.3346     17.3575
C     16.5123     -2.3175     16.3270
H     11.4620      3.2876      6.4675
H      4.5021      5.6985     13.5646
C     16.8809     -3.7333     16.2604
H      5.3767      7.1567      9.1648
H     19.8061     -1.5313     11.5927
H     17.3259      6.0149     21.4883
H     12.1959      5.1973      6.9937
H      6.3062     14.1393      9.1654
C      3.2617     15.7635      7.6915
H      9.5298     11.6300     -2.2119
H      7.2140     14.5780      4.4797
C      7.6533     12.2622      8.7012
C      9.7261     11.1444     -1.3401
C      6.1920      5.8180     10.1756
H      1.7775     11.6742      9.1284
H     14.0471      6.8089     10.0359
C     19.4472      3.3312     16.3013
H      5.3908      3.2021      7.4921
H      4.0470     11.6713      9.5976
H     15.5567      5.8809      9.4463
C     16.8611     -2.0903     17.6213
C     10.2019      8.5759      5.0705
O     14.9515      8.6961      5.0957
C     11.3735      8.0306      7.0898
C      8.8592      7.8719     11.9744
C      7.6308      7.5289     13.0820
C      6.4634      6.8799     12.2758
H     18.1555      4.7876     15.0692
H      6.5048      4.0272     11.7101
H     17.8080     -3.1775     14.2073
H     13.2603     -0.7944     17.6463
H      8.2098      7.0325      8.9495
C      8.0526      2.6671      8.9032
H     13.4749      1.2743     14.5158
C      7.1765      5.9655     11.0530
C     21.3041      6.0987     16.5978
H     21.6251      7.2689     15.5844
C     11.8030      6.7340      5.1542
H     16.6153      8.4850     21.5524
H     16.3002     -1.8750     15.3371
H     16.5524      6.3142     15.3618
H      3.0442     17.7305     10.0187
H     15.6860      5.2173      0.4915
C      9.6415     11.4971      7.4123
C      6.6607      4.6694      9.0108
C     15.8800      7.5719     18.0656
C      9.6785     14.8832      0.6085
C      5.6974      4.4183     12.6504
C     17.6656     -3.9191     14.9702
H      9.5048      7.5788      5.1565
H     21.4481      7.7203     17.4361
H      4.1965     13.8920     10.3069
H      6.6414      9.7895      9.6712
H     17.9906     -0.3082     18.3915
C     -0.2472     15.6462      8.1556
H     21.1748     -2.9403     15.3921
C     13.1584      8.5626     12.2678
C      2.0194     15.2146      7.7216
H     11.0388      7.0437     10.3278
H     11.9335     10.1396     -1.6444
C     12.5643      6.3060      1.5049
H      5.4653      7.5335     12.1683
H     10.6621      2.4325      4.7281
H      5.7004     16.7090      5.1906
H      7.6291      6.6825      7.6081
C     10.2059      7.4915     12.4167
O     15.4247     10.4025     14.1751
C      7.4081      8.8858      7.7905
C     16.9122      8.3637     20.4910
C      3.4794     14.2567      9.6302
C     16.1185      0.5313     17.4653
H     21.5875     -2.3876     13.4791
H      6.7824     13.4113      6.6317
H     10.9615      4.6369      6.5599
H      4.0937      6.1568     10.2919
C     16.9312      3.6071     16.4038
C     10.9314      8.4913      0.4011
C     11.2615      6.8757     11.5795
H      8.8923      1.9267      8.9707
C      5.4217     15.5329      5.3008
H      2.2625     11.3707      7.2675
H     18.1703     -0.3598     16.6523
C      2.2547     12.0238      8.1695
C      4.5160     11.0747      7.3561
C     10.9487      5.0664      3.8267
C     16.9059      9.8022     19.7830
C     15.6425      3.4804     15.7283
C      5.0699      6.7888     10.0511
H      1.8782     12.9993      7.8129
H     15.8201      7.5001     13.5287
H     13.3790     11.2296     14.4233
H     20.6786      6.4930     19.1283
H     10.3144     12.4805      0.6184
H     14.3245      4.9165     -0.7142
O     18.3990      6.8760     19.6029
C     13.5597      8.1952      4.6393
H      4.8026     11.5813      6.2531
C     10.4256      8.7676      3.4267
C     10.8034      7.5023      2.7636
H      8.3779     10.1112      8.4844
H     21.4983      3.1633     15.7418
C     10.1072      7.6267      7.7111
H     10.2157     15.1618      1.6006
H      1.9180     15.8864      4.0633
H     11.7919     11.4808     -0.5357
H      4.7600      5.7356     11.5942
C     15.4348      0.3182     14.8595
C     12.7715      8.5933      2.0458
O      4.5213      4.7293     11.8819
O      8.2268      3.9031     10.8259
C     12.5892      2.9812     14.5954
C     12.9481      3.8982      4.1098
C      7.1449     11.0651      6.9120
H      9.0707     10.4184     -1.5248
H     15.9706     10.2383     19.8300
H     11.8211      9.7786      4.3650
H     12.1080      8.7274     10.3876
O     12.7711      9.8728      6.3821
C      6.0711     10.7458      8.0209
C     13.6564      7.0649      7.0633
C     14.6511      7.6752     14.0931
H     15.4240      8.6812     16.2365
C     13.4669      7.6918      3.2023
H      8.0743     13.3038      8.6380
C     14.7444      0.2356     17.2203
C      0.6443     15.3606      7.1680
C     10.2235     11.0842      6.2572
C     10.9461      3.2982      5.3994
C     17.3005     -0.5965     17.6368
C      2.8912     16.7308     10.3046
C     13.7296      2.1759     15.1471
C     11.7786      7.7985      1.5046
C      3.7222     11.7798      8.4902
N     14.1923     -0.5950     18.3072
C     15.5556      0.4265     13.3754
O      5.2798      6.0041     14.2470
C      9.9231      6.4524     13.2865
C     10.5764      4.2525      2.8778
C     10.2706      7.7043      9.2452
H      8.5321      3.1288      8.0152
H      2.1008     14.4573      6.1373
H      7.3897      9.2958      5.3804
C     11.1246      9.7770      0.1335
H      5.2078      7.5444     10.7392
H     15.2791      7.7108      9.2512
H     14.5045      8.9232     10.4315
H     15.1999     -0.4002     12.8653
H      0.3279     15.9913      9.2459
C     15.0724      7.8367     15.3852
H     14.5727      1.2790     13.2590
C     14.5447      8.7853     11.6402
C     19.5171     -2.6020     12.9525
H      8.1657      5.4261     11.2405
C     11.0717     10.7863     -1.1188
H     14.8678     -1.4131     18.6534
C     17.2187      8.4869     17.6153
C     20.7392      7.3561     16.4038
C     21.1313     -3.3353     14.3164
C     19.2230     -4.6427     14.9691
C     17.2832      6.1506     19.3883
C     14.8276      4.8890      2.4868
C      6.4616      5.6891     13.3022
C     18.4255      7.7440     17.2975
C      8.5840      6.1978     13.4882
H     15.0958      9.6149     11.8593
C     17.2870      5.1771     20.7274
O     13.3488     11.1540     13.3891
C     14.6355      5.1502      1.0328
H      9.1725      8.1440      7.1514
C     19.0891      7.3871     18.4866
H     -0.2772     14.9036      5.8590
H      9.5963     15.3283     -0.4393
H     10.5421      4.3823      1.9859
C      7.6392      5.4252     14.1561
H     12.6204      2.9420      3.7544
O     20.3677      7.2475     18.6336
H      7.4899      8.1489     10.1303
H     22.1338     -3.8244     14.3568
H     14.2535      3.0515     -0.2800
H     17.7981      5.3709     17.6363
C     12.3199      7.8443     11.2193
H      6.2546      4.6399      6.9301
C     15.7110      6.4519     15.9043
C     11.7158      4.3981      4.7977
C     13.4358      6.7951      5.4066
H      5.3564      8.8175      8.9622
H      3.4974     14.9687      5.0988
C     14.4079      5.6418     17.6835
H     13.7277     -0.8155     15.5178
C      7.4561      7.4327      8.3642
C      4.1317     13.5065      8.6158
C     19.3438      7.5217     16.1342
C      9.3628     10.0636      5.5265
C     12.9323      6.3608      2.8647
C     11.5400      6.4025      3.6449
H     10.1127     12.2595      8.2945
H     12.9648      3.9426     -0.0767
H     17.0488     -4.8677     14.6865
H      5.6737      3.7440     13.5955
H      9.9458      3.6267      5.6421
C      1.9466     14.4265      8.8778
C     13.7827      5.3199      3.4364
C     18.1229      3.8185     15.9464
H     14.0167      4.3707      7.7589
H     17.9625      8.0462     20.6369
C      7.5656      3.7529      9.9147
H     11.2492     11.6488      1.3786
H      7.0174     11.7832      6.1137
C     14.9124      6.6211      9.1415
C     11.6368      5.2229      6.0515
C     14.5354     -0.3484     16.0311
C     14.7130      4.3823     18.4979
C     14.7908      6.4307      7.6314
C     14.2525      3.9920      0.0030
H     11.9933      5.4479      1.1047
H     16.4505      0.0112     15.2675
H      8.8610      9.1870      8.9593
H     16.6832      0.3466     13.2813
H      6.4537      6.9557      9.0548
H      7.3377      2.2314      8.1482
H      9.1297     10.5097      4.5908
C      8.4313     12.9494     -0.0952
H      5.4055     14.5396      3.9485
C     12.3887      9.0660      5.1230
C      9.4812      8.6563      9.6819
H      9.3705      8.8478      3.4165
C      8.3626     11.2080      7.9567
H      8.9440      9.7072      6.4595
C     12.5892      7.7085      7.6631
C      1.0684     16.2354      4.7407
O     21.8422      5.5496     17.7076
C     11.4862      8.1106      5.5341
C      6.0324     13.8128      7.1073
C      4.9361     14.4501      6.3892
C      2.8809     13.7428      6.0202
H      4.7950     15.8966      9.6400
H      8.2835     12.0938      9.4708
H     12.2541      9.2120      7.1873
H     16.4885      0.9294     16.5218
H     12.6335      7.8482      8.7005
C     14.7833      4.9438      7.1864
H     12.5460      4.0610     14.7038
C     16.8343      5.4350     18.0227
C      3.7425     15.8117      9.5116
H      7.3501     12.7201     -0.4607
H     13.7319      6.4144     -0.3809
C      8.6227      8.3773     10.6965
H      3.1603     16.7978     11.3823
H      7.4889      5.0349      8.3628
H     11.5802      5.8786     12.0854
C      3.8804     15.9357      4.8132
C     17.3203      9.7936     18.4168
C      6.1735     12.1305      9.0779
C      7.3698      9.6349      6.5326
C      5.6535      4.4653      7.9060
C      5.7027     13.5198      8.6035
H     -1.2274     16.4552      7.9908
H     19.6177     -1.8888     13.8181
H     10.5568      5.6252     13.6053
C     14.2996     10.1241     13.9212
H      1.8681     16.6787      9.8748
H     10.9668      9.6181      3.1046
