286

C      7.1408    -17.0855      0.8102
N     -2.1077     10.5088      1.3810
C      3.8640      1.4316      7.2181
C      2.2944    -10.7791      2.1691
H      1.1083      1.1315      9.4474
C      7.9497     -8.1027      2.6903
H     -2.9006      6.4379    -10.4284
C      7.4233     -9.4011      2.8720
C      3.4432      4.3398      5.6034
C      6.6481    -15.4719     -1.2377
C      3.3188     -5.6362      6.5822
C      6.0158      2.0619      4.2066
C      6.5026     -3.0839      8.9019
C      1.0250      8.5796      0.8198
C     -3.7654     12.0002     -0.3033
C     -4.4051     13.9831      0.7727
N      0.5038      2.5836      5.7794
H      6.9331    -16.3883     -1.6524
C      1.1149      6.4099      0.5503
O     -0.7090    -10.2536      0.7844
C      3.5016      4.2531      7.2398
H      0.1207      7.3994     -2.3600
H     -5.2723     14.6170      1.2080
C      2.6703      6.3984      4.4220
C      3.4015    -15.4269      3.2935
H     -2.2693      3.0749      6.6041
C      4.2092    -16.6662      3.2515
H     -7.9443      7.2619     -3.9681
H      6.9911    -14.3896     -1.5094
H     -8.9460      5.4889     -4.4008
H     -0.7742      5.3275      6.6798
H      6.1182      1.0482      9.4160
C      3.3222      2.7228      7.8313
H     -3.2498     11.5735     -2.1702
H      6.6617      1.2454      4.8102
C      7.7617     -0.5746      8.6678
C     -3.4118     10.7535     -1.2750
C     -6.5561      6.2335     -2.9628
H      1.5207     -0.2767      8.7529
H      0.9176      6.0840     -4.0944
C      6.2627     -9.6504      3.4507
H     -7.3116      3.6264     -4.9374
H      3.5235     -1.6720      9.6628
H      3.0121      6.2104     -3.7466
C      4.1253    -15.1501      4.5288
C     -2.8866      8.6093     -7.9254
O      1.8961      8.6392      4.9068
C     -1.5008      7.7849     -5.7407
C     -4.0006      7.9842     -1.0638
C     -5.0085      7.6343      0.1192
C     -6.1643      6.7292     -0.5673
H      5.1591     -8.3913      1.9521
H     -6.7061      4.0046     -0.5907
H      4.4481    -15.7867      1.7304
H      0.5624    -14.1332      4.6779
H      7.5282     -5.6367      9.2534
C     -5.3386      2.9803     -4.1398
H      0.5812    -12.1171      1.9532
C     -5.6841      6.3700     -1.8904
C      8.2907     -7.1579      3.6695
H      8.2952     -5.2453      2.3723
C     -1.0348      6.6911      5.1925
H      3.3649     -4.5549      8.3614
H      3.0874    -14.5895      2.2722
H      3.7168      6.2103      2.5955
H      3.5874      4.5472      9.6045
H      3.0265      5.3492      1.0697
C     -3.4340     11.8647     -5.7899
C     -6.3652      5.0250     -3.7129
C      2.9464     -5.1189      5.1112
C     -3.2913     14.6924      0.6194
C     -7.1768      4.5253      0.1663
C      4.9188    -16.7670      2.0883
H     -3.6793      7.7731     -7.7846
H      8.5980     -5.4577      4.0536
H      3.2063      0.4648     10.2778
H      7.3440     -2.7357      9.3632
H      5.6571    -14.1480      5.1744
C     -0.1798      2.8702      7.8554
H      8.0168    -16.0049      2.1525
C      0.1947      8.4735     -0.8091
C      1.8993      2.3655      8.0307
H     -1.5705      5.9818     -2.1547
H     -1.8086     10.0521     -2.0161
C     -0.3897      6.3363      1.3016
H     -7.0803      7.6467     -0.7213
H     -1.6859      2.4354      4.4956
H      8.4100     -5.5781      7.7104
C     -2.5415      7.6747     -0.5132
O      2.6343     10.2864      0.8634
C      6.9915     -4.0423      7.9718
C      3.9233     -4.4862      7.4333
C      3.1086      1.2974      9.5943
C      3.3467    -12.5487      4.8598
H      8.3608    -15.2513      0.4106
H      7.1393      0.4980      6.6002
H     -2.2715      5.2757      6.6811
H     -8.6536      6.3018     -2.7615
C      3.8654     -9.4852      3.4344
C     -1.8734      8.4974      0.4617
C     -1.5264      6.9622     -1.5376
H     -4.7764      2.2208     -3.6298
C      4.9912      2.3979      5.2785
H      1.8149     -1.4631      7.2234
H      4.5110    -13.5789      3.5655
C      2.1965     -0.8644      7.9763
C      4.5373     -1.9112      7.5271
C     -2.1453      5.1774      3.8286
C      3.8948     -3.1163      6.8315
C      2.7020     -9.5154      2.7112
C     -7.7464      6.8937     -2.9875
H      3.2179      7.8495      0.3804
H     -4.7594      6.4768     -7.3985
H     -3.0814     12.4282      0.5110
H      1.4211      4.2316     -1.2165
O     -7.2803      6.9614     -6.2906
C      0.6958      8.2107      4.6431
H      4.7841     -1.0714      6.6380
C     -2.7509      8.5704     -9.4606
C     -2.2223      7.3303    -10.1281
H      8.7572     -2.4262      8.2232
H      8.0255    -10.4444      2.8528
C     -2.4675      8.0524     -4.9327
H     -3.1049     15.5612      1.2673
H      1.6046      3.0441      3.8383
H     -1.7016     11.7132     -0.8907
H     -8.2950      4.2651     -1.1861
C      3.1607    -12.1342      2.0621
C     -0.1170      8.6377      1.9411
O     -8.3777      4.8086     -0.5073
O     -4.8853      3.9707     -2.0441
C      0.0691     -9.9218      1.6620
C     -0.0988      4.2704      3.9578
C      6.9249     -1.9580      6.9626
H     -3.9075      9.6247     -1.3623
H      2.8559     -2.5995      6.6219
H     -0.7630      9.9033     -8.6480
H     -0.9909      8.5795     -2.8187
O     -0.2529      9.9530     -6.5076
C      5.8663     -1.9940      8.1601
C      0.8417      7.2824     -6.2013
C      2.0742      7.6401      0.8655
H      2.7553      8.3046      2.5421
C      0.6001      7.7797      3.0082
H      7.8894      0.4602      8.2067
C      2.3455    -13.2733      4.1858
C      0.8351      2.5692      7.0782
C     -2.7070     10.7569     -6.1622
C     -2.1408      3.1143      5.2696
C      4.6097    -13.8296      4.8290
C      2.9860      3.6608     10.0774
C      0.7950    -11.0307      2.1754
C     -1.3093      7.6801      1.4461
C      3.6592     -1.1198      8.5924
N      1.3786    -13.5799      5.2505
C      2.6745    -12.4332      0.5719
C     -2.9522      6.3055      0.4192
H      5.5740     -3.4465      5.6821
C     -2.5976      4.6510      2.7115
C     -2.5833      7.6481     -3.5819
H     -5.1963      3.5605     -5.1462
H      1.9559      1.1797      6.2616
H      7.3032     -3.9636      5.5150
C     -1.5657      9.7715      0.2051
H     -8.2193      7.6487     -2.3121
H      1.6124      7.7593     -4.0613
H     -0.4947      9.6017      2.6502
H      0.8498      9.4526     -2.7058
H      2.3967    -13.5563      0.3434
H     -0.0867      2.8066      8.8459
C      1.9344      7.5939      2.5608
H      1.8481    -11.7912      0.2892
C      1.2001      9.1352     -1.4716
C      6.4306    -15.8830      0.1025
H     -4.8991      5.6759     -1.8076
C     -1.8241     10.4535     -0.9191
H      0.8413    -13.0690      5.8743
C      4.3313     -4.5918      4.6221
C      7.8330     -5.8631      3.3073
C      8.4471    -16.2707      1.1613
C      6.2727    -17.5617      2.0440
C     -8.5371      6.2869     -6.5498
C      1.8781      5.0069      2.4248
C     -6.4256      5.8523      0.4973
C      5.7403     -5.3974      4.3861
C     -4.2663      6.3865      0.6565
H      2.2432      9.5896     -1.3626
C     -8.5109      5.2765     -5.4261
O      0.3069     10.9860      0.4827
C      1.8131      5.1401      1.0339
H     -3.3753      8.5467     -5.4063
C     -6.6488      7.1496     -7.4007
H      0.7907      1.7169      5.7755
H     -2.5428     14.6532     -0.2277
H     -2.5017      4.9700      1.6053
C     -5.3977      5.5648      1.4874
O     -5.2789      7.2708     -7.1071
H     -5.6364      8.6002     -1.9792
H      9.3631    -17.0482      0.6952
H      2.9362      3.9329     -0.1245
H     -8.2372      5.6848     -8.7292
C     -0.6925      8.0226     -1.9654
H     -6.4305      4.6661     -5.8537
C      2.6844      6.3762      2.9748
C     -1.3828      4.3387      4.8297
C      0.4424      6.9668      5.3274
H      5.6625     -3.6340      9.2399
H      2.7451      2.3805      4.8988
C      1.5139      5.8434      4.8618
H      1.5441    -13.5976      2.4081
H     -2.5637      9.8852     -5.2995
H     -3.0138      6.7127     -3.4137
C      7.5268     -5.4653      8.2090
C      4.3091      0.3352      8.5197
C      6.5053     -5.4451      3.1956
C     -3.2177     10.1412     -7.5853
C     -0.0506      6.4561      2.8385
C     -1.4607      6.4442      3.6752
H     -2.7205     12.3117     -5.0102
H      4.3484    -17.6461      1.4294
H     -7.5381      3.8499      0.9379
H     -3.0668      3.3844      4.7482
C      1.9721      1.3169      8.7856
H     -1.8640     11.1126     -6.6315
C      0.7108      5.2523      3.3094
C      5.0297     -8.8526      3.0711
H      0.9530      4.8825      7.5759
H      5.0050     -4.4759      7.5294
C     -5.6005      3.8629     -2.9443
H     -2.2345     11.5205      0.9728
H      6.5892     -1.2963      6.1732
C      1.9494      6.5043     -4.2205
C     -1.3687      5.4458      5.9072
C      2.1617    -12.9670      2.9370
C      1.6909      4.5462      5.4227
C      2.1395      6.4775     -5.7288
C      1.8118      4.0782      0.0542
H     -1.1235      5.5068      1.5369
H      4.1528    -11.7505      1.8992
H     -3.7971      9.5550     -3.1971
H      3.4395    -12.1934     -0.0508
H      6.7203     -6.2104      7.9942
H     -6.3115      2.2876     -4.1270
H     -2.5648     10.6308     -8.2808
C     -4.7085     12.9470     -0.2542
H      5.8384      1.3442      3.4725
C     -0.4722      9.0777     -7.7354
C     -3.6047      8.3265     -3.1510
H     -3.6928      9.1559     -9.7551
C      8.2805     -1.5069      7.8360
H     -2.4897      3.6855      2.3478
H     -4.3755     10.3389     -7.2524
C     -0.2109      7.6171     -5.3898
C      0.9456      3.4609      4.7504
O      9.0805     -7.8577      4.7958
C     -1.6107      7.9977     -7.2839
C      6.1848      1.1872      7.0345
C      4.9728      1.4516      6.3810
C      2.9131      0.9310      6.1650
H      6.8418      2.2675      7.3521
H      8.0531     -0.3248      9.7675
H     -1.1018      9.7881     -5.9201
H      4.1486    -12.0273      4.3327
H     -0.3834      8.1393     -4.4187
C      1.9212      4.9395      6.9608
H      0.6671     -8.8713      1.5762
C     -8.9246      5.6752     -7.8515
C      3.8530      2.4520      9.4100
H      0.8464      6.5512     -0.4807
C     -4.5893      8.0295     -2.2624
H      3.5372      4.3658     11.0113
H     -5.5963      5.3130     -4.5162
H     -0.9860      6.4673     -0.8604
C      3.6836      3.0083      4.8140
C      4.5582     -3.4480      5.5650
C      6.4171     -0.7845      9.0121
C      6.9914     -3.4951      6.6681
C     -7.0155      4.7720     -5.0387
C      5.7908      0.5847      8.4840
H     -1.1766      3.2009      7.5892
H      6.4833    -15.1418      0.7375
H      6.3259     -0.6511     10.0909
H     -2.6219      6.5807      1.4822
C      1.4692      9.9255      0.5125
H      1.9790      3.5957     10.2567
H     -1.9823      9.4733     -9.7024
