283

C     19.8574      8.6969     13.4695
N     -2.2751     10.4411      1.2641
C      3.7343      1.4608      6.9239
C      2.0495      2.4491      2.2274
H      1.2890      2.1158     10.0340
C      7.4288      5.3595      2.4585
H     -3.1861      7.3567      2.5842
C      7.5403      4.0722      3.0294
C      3.3855      4.1230      5.3472
C     19.6203     10.1391     11.1267
C     16.3648      7.4121     19.5001
C      6.2308      2.0864      4.2258
C     -6.8265      8.3795      9.0454
C     13.7167      8.7569     13.7724
C     -3.5535     12.3589     -0.8219
C     -4.1332     13.4295      1.0257
N      0.4790      3.0335      6.3139
C      0.6538      6.3081      0.7398
O     -1.4220      2.5358      1.4519
C      3.2047      4.2801      6.8820
H     13.3019      6.7732     11.3240
H     -4.1709     13.0909      2.0687
C     15.8862      6.3646     17.2512
C     17.0518     10.4189     16.2112
H     -1.6983      2.6790      6.1302
C     16.9638      9.1612     15.7044
H      4.5361      7.2881     10.3319
H     19.8563     11.1944     11.1132
H      1.9623      4.0778     10.1216
H     -0.2590      5.3792      5.8768
H     -7.1070     14.6787      8.7161
C      3.0102      3.0643      7.7712
H     -3.0611     11.7490     -2.8875
H      7.0603      2.2211      4.6354
O     14.4396     10.2354     15.5458
C     -5.3107     12.3440      8.8950
H     19.3877     10.5465     13.3548
C     -3.1814     11.1122     -1.7956
C      6.0999      5.8374      9.8681
H      2.7135     -0.5849      6.4170
H      4.2878      5.6134      8.6739
C      6.4244      3.2272      3.1054
H      5.2197      3.2927      7.8117
H     18.4873     10.1452     11.0281
H     -8.3659     11.3841      9.2079
H      2.2121      7.7542      9.0279
C     17.7578     10.7553     17.2814
C     -2.7148      8.8352      5.0193
O      2.2888      8.7883      4.9164
C     -1.3108      8.3359      7.2131
C      8.6114      7.9159     11.7940
C     20.4431      7.5801     12.7912
C      6.4175      6.7600     -0.7829
H      5.4172      3.8500      1.4181
H     17.1566      9.0338     13.6054
H      1.8500     -1.8483      4.1406
H     -5.6005      6.2501      8.2003
C      8.0337      2.6514      8.6277
H      0.6167      1.1776      2.3979
C      7.0778      5.9695     10.9381
C      8.2266      6.2499      3.1960
H      8.0525      7.9801      2.1428
C     -1.2125      6.9121      5.2359
H     15.3745      9.1248     20.4444
H      2.4574      5.5720      0.5916
C     -3.1669     11.4096      7.8942
C      6.5126      4.7255      8.9508
C     15.9695      7.6779     18.1076
C     -3.6509     14.8365      0.9513
C      5.1887      4.3782     -0.5630
C     17.5979      8.6473     14.4624
H     -3.3108      7.8434      4.8290
H      8.3734      8.3592      3.9249
H      3.4693      0.4466     10.2744
H     -7.1616     10.0305      8.9269
H     18.4742     12.4207     18.2804
C     -0.9917      3.7975      8.1594
H     21.1470      9.8462     15.1886
C     13.3302      8.8072     12.1774
C      1.6499      2.7313      8.2791
H     10.4727      6.2826     11.0396
H     -0.8650      9.9495     -1.4376
C     -0.6716      6.4023      1.5473
H      5.1877      6.4791     -1.1498
H     -2.9656      2.9936      4.8532
H     18.1575      9.3467     12.4011
H     -3.8293      6.3217      5.0211
C     10.2193      7.2544     12.5569
O     15.6276     10.2612     13.8787
C     -5.6836      8.5041      8.2067
C     16.4210      8.7129     20.2613
C      3.2688      1.3944      9.3740
C      2.3622      0.8237      4.8445
H     -5.1164     11.3853      0.9102
H     -1.4085     10.8755      1.0439
H     -6.6479     12.7021      6.6971
H     -1.9334      5.5750      7.1518
H      2.8161      5.6494      8.7514
C      3.9202      3.4711      3.2065
C     -2.1141      8.3142      0.4805
C     11.4108      6.4168     11.7666
H      7.6563      1.8055      9.0846
C      5.0580      2.2020      5.0857
H    -11.0232     11.8936      9.4584
H     17.6854     12.4645     16.4951
C    -10.5023     11.3626      8.5510
C     -8.2663     11.2347      7.1174
C     -2.5530      5.1194      3.8672
C     16.8658      9.8759     19.3094
C      2.5335      3.6943      2.7510
C      5.4152      7.1965      9.5103
H    -11.3573     11.3703      7.5084
H     15.4974      7.3862     13.6544
H     -3.0729     13.3092     -1.3234
H     -0.1211      3.8734      0.3576
O      5.8500      6.7672      6.6015
C      0.8578      8.2893      4.5840
H     -8.5095     12.1634      6.6576
C     -2.4846      9.1552      3.4402
C     -2.2603      7.7667      2.8005
H     -4.2786     10.5577      9.4087
H      8.1734      3.8067      3.8563
C     -2.6277      8.4198      7.7220
H     -4.2957     15.2074      1.5356
H     -1.2184     11.4917     -0.7960
H      3.6622      3.5077     -0.0285
C      3.0407      1.1481      1.8485
C     -0.0951      8.5985      2.0391
O      3.9861      4.4215     -0.0392
O      7.2807      3.3390     10.7332
C     -0.3667      3.1082      1.7030
C      0.0469      3.7927      3.9929
C     -5.7866     10.7999      7.3374
H     -4.0806     10.5271     -1.7768
H     15.7844      9.9668     19.1248
H     12.2821      8.1788     10.6131
O      0.4286     10.0502      6.2608
C     -7.0999     11.0620      8.1583
C      0.8729      7.1497      6.7201
C     14.3794      7.5030     13.9420
H     15.7629      8.6206     15.7613
C      0.6650      7.7916      3.0344
H     -4.4967     12.9890      8.2535
C      2.0997     -0.2946      3.8215
C      0.4529      3.2666      7.6976
C     -2.6137     10.7431      6.8055
C     -2.2399      3.4744      5.7120
C     17.9944     12.2311     17.4217
C      3.0238      3.9276     10.3130
C      0.6863      2.1999      2.0906
C     -1.3971      7.7841      1.6774
C     -9.1310     11.3271      8.4168
N      1.2303     -1.2591      4.5504
C      3.5969      1.4186      0.4661
C      9.3828      6.2189      0.4671
C     -2.8211      4.1826      2.6947
C     -2.8531      8.3181      9.2118
H      9.0842      3.0931      8.9288
H      1.3671      0.4351      6.6402
H     -5.0000      8.6831      6.2945
C     -2.4981      9.6997     -0.0136
H      5.1508      6.9693      8.5228
H      1.3204      6.5003      9.0681
H     -0.4319      9.8460      2.0692
H     14.4916      8.9633     10.6231
H      2.7377      1.5301     -0.2494
H     -2.3749      3.8635      1.8002
H     -1.5213      4.3818      8.9240
C     14.8911      7.4708     15.4072
H      4.1334      2.3995      1.1689
C     14.3076      9.4997     11.5471
C     19.2460      9.7022     12.6941
H      7.6533      5.2260     11.3283
C     -1.9660     10.5367     -1.1194
H      0.8780     -0.6549      5.2711
C      4.3280      8.3004      4.6614
C      7.9786      7.5987      3.1293
C     21.1866      9.2226     14.3222
C     18.9557      8.4498     14.8969
C      4.5592      6.2989      6.4269
C      2.0244      5.0217      2.4748
C      6.1766      5.4579      0.0130
C      5.8028      7.8005      4.1724
C      8.0694      6.4904      0.6080
H     15.2767      9.6319     12.2410
C      4.4277      5.1737      7.4409
C      1.5769      5.2116      0.9577
H     -3.4674      8.4251      7.0906
C      6.7298      7.2664      5.3108
H      1.6740      1.4221      5.0940
H     -3.3034     15.0196     -0.2495
H     -3.9596      4.1308      2.3471
C      6.9732      5.5224      1.0864
H     -0.8490      3.9403      3.5607
O      7.9996      7.3261      5.7079
H      8.3361      8.9573     11.8216
H     22.1362      8.9028     14.5661
H      0.7350      4.7365     -0.9777
H      5.2194      5.7501      4.8289
C     12.6383      7.6229     11.3955
H      6.1692      4.6485      6.5895
C     15.5392      6.3155     15.8350
C     -2.0263      4.7104      5.0830
C      0.6029      7.1498      5.3799
H     20.1348      9.3332     10.6105
H      3.2730      1.6187      4.5604
C      1.2701      5.8132      4.7292
H      2.2682     -1.0960      1.4481
H     15.3078     10.5664     15.8415
H     -2.0084      7.5440      9.3043
C     -4.8532      7.0385      8.2214
C      4.1230      0.8736      8.0643
C      6.5585      7.9067      3.0969
C     -3.1183     10.2800      5.4858
C     -0.3091      6.3298      2.9861
C     -1.4791      6.6119      3.7036
H     -2.5503     12.0930      8.6586
H      1.6167      3.2624     -0.1374
H      5.4608      3.3647     -0.4317
H     -2.9966      3.4407      6.4032
C      1.9977      1.8912      9.2902
H     -1.6143     11.1871      6.6099
C      0.7988      5.4018      3.3403
C      5.1656      3.7188      2.5296
H      1.5410      4.8168      7.7278
H     17.1453      8.7211     21.1587
C      7.0356      3.4646      9.5100
H     -3.0399     10.7524      2.0104
H     -5.2938     11.0064      6.3372
C      2.2910      6.7399      8.6662
C     -1.5016      5.6174      6.0109
C      2.3162     -0.1264      2.2442
C      1.0230      5.0407      5.8631
C      2.0707      6.6173      7.2482
C      1.0400      4.2470     -0.0280
H     -1.2773      5.6581      1.0973
H      3.6661      0.8690      2.6180
H     -3.1107      9.5818      9.6752
H      4.4786      0.7094      0.1111
H     -4.0342      6.9186      7.4981
H      7.4969      2.7243      7.7510
H     -2.3772     10.5195      4.5280
C     -4.3540     12.1314      0.2759
H      6.5666      1.1493      3.6801
C     -0.2856      9.3441      5.1765
C     -4.1992      7.5468      9.4727
H      5.2890      4.5817     -1.6302
H     -3.3166      9.7751      3.1219
C     -4.5975     11.0310      8.5261
H     -2.7668      3.5163      3.3448
H     -4.3341     10.4452      5.3119
C     -0.0419      7.9671      7.6705
C      0.5275      3.7455      5.2301
O     -3.7672      5.9435      4.1408
C     -1.4134      8.4509      5.6902
C     -6.8037     13.7289      6.6507
C      4.9446      1.5513      6.2491
C      2.5090      0.5310      6.4226
H     -5.9249     14.1247      6.8795
H      4.7932      3.3742      8.9760
H     -4.8677     12.4761      9.9055
H     -0.1912     10.8197      6.5481
H     17.0855     12.7031     17.8115
H      0.2243      8.0938      8.7272
C      2.0917      5.1204      7.0338
H     -0.2610      4.1002      1.7726
C      4.0530      5.5476      5.0485
C      3.7322      3.3072      9.1642
H      0.1484      6.3127     -0.2930
C      8.2269      7.1306     10.7151
C      4.0049      3.0436      4.6698
C     17.8474      9.5289     18.2352
C     -6.8490     12.4050      8.8797
C     -5.3968      9.2475      7.2171
C      5.9258      4.4614      7.7318
C     -7.4728     13.5713      8.1253
H     -1.7141      3.7201      7.3931
H     -3.5371      9.8589     -0.4721
H     -7.0597     12.4314     10.0301
H      9.8571      5.2063      0.6922
C     14.5581     10.0912     14.2475
H      3.6472      4.8098     10.2416
H     -1.5847      9.8598      3.4124
