293

C      7.1785      9.0431     13.7589
N     10.6221     -2.3312      0.9727
C      3.8862      1.2137      7.1878
C      1.8769      2.5421      2.7924
H      1.5055      0.4267      9.7584
C      7.8734      5.2131      2.6537
H      9.8835     -5.7321      2.6644
C      7.8293      3.8235      3.0898
C      3.1979      3.9376      5.7308
C      6.3423     10.2826     11.5269
C      3.2058      7.4136     19.5951
C      6.3431      2.2373      4.3124
C      6.0854     -3.3206      8.6859
C      0.6050      8.6727     13.5281
C      9.2179     -1.0770     -0.2253
C      8.0805      0.7432      0.7144
N      0.7939      2.2878      6.0824
H      5.3896     10.1437     11.1069
C     13.5426     -6.8459      0.7527
O     -0.5532      2.3273     -0.0859
C      3.2482      3.9820      7.1911
H      0.5550      6.5721     10.6840
H      7.2206      1.2353      1.2846
C      2.7318      6.4982     17.2752
C      3.6917     10.5749     16.4701
H     -1.5069      2.1746      5.5201
H      4.2909      6.9474      0.6359
C      4.2336      9.3925     16.2179
H      4.4595      7.2858     -3.8908
H      6.8156     11.0545     10.9592
H      4.3139      4.5464     -4.2805
H     -0.4911      5.3647      6.5619
H      5.7219      1.1090      9.9349
C      3.0407      2.6613      7.8537
H     10.5497     -0.9527     -1.5892
H      7.1607      1.7020      4.8056
C      7.4964     -0.8643      8.9362
C      9.9529     -1.8464     -1.4455
C      6.3103      6.0041     -2.9795
H      1.9444      0.1872      8.1651
H      1.2493      6.5181      9.3476
C      6.5769      3.6021      3.5998
H      5.6763      3.5844     -4.8243
H      3.9637     -1.5702      9.6327
H      3.0590      6.0155      8.8405
C      4.6503     11.0407     17.5702
C     10.2132     -4.2219      5.0913
O     15.0872     -4.2783      4.6833
C     -1.2550      8.2691      7.2008
C     -3.9676      7.8502     11.6855
C      7.6279      7.5271     12.7915
C      6.6105      6.7812     -0.7018
H      4.9945      5.0761      2.7960
H      4.7404      9.9522     13.9993
H      1.8010     -2.5113      4.5414
H      7.8765     -5.1725      8.3240
C      7.9653      2.4527     -3.7693
H      0.4738      1.2246      1.8860
C      7.1326      6.0757     -1.8838
C      8.1593      6.3777      3.5220
H      8.4646      7.8075      2.5426
C     -0.8736      6.6871      4.9538
H      3.9949      8.3177     21.4965
H      3.6676     10.9731     15.3466
H      3.9855      6.1246     15.3148
H      3.1361      4.2969      9.9760
H     15.7761     -7.2203      0.5994
C      9.6541     -1.2094      7.6033
C      6.9518      5.0367     -3.8912
C      3.0859      7.8613     18.0137
C      9.1308      1.6078      0.8590
C      5.5878      4.5599      0.3944
C      4.7150      9.2683     14.8585
H      9.5397     -5.2170      5.3534
H      8.3459      8.2203      4.1403
H      3.2803      0.2125     10.4660
H      7.0270     -2.9860      9.4875
H      5.6677     12.7500     18.0943
C     -0.1698      3.0992      7.8531
H      8.3114     10.3045     14.9495
C      0.4546      8.4756     11.9069
C      1.8976      2.2876      8.5513
H     -1.6049      5.8834     10.6903
H     10.9242     -3.7579     -1.7440
C     12.2566     -6.5514      1.4350
H      5.9364      7.5869     -0.9636
H     -2.3238      2.5940      4.1667
H      7.1699     -6.2647      7.3880
C     -2.5719      7.3108     12.1807
O      2.5990     10.3558     13.5639
C      6.5366     -4.1321      7.6402
C      3.8409      8.5606     20.3498
C      3.3138      1.0408      9.6200
C      3.0948      0.1333      5.1307
H      9.1167      9.5579     13.3696
H     11.2287     -2.1682      1.7773
H      7.2461      1.1109      7.5107
H     -2.1623      6.1553      6.1681
H      4.4166      6.4059     -2.2345
C      3.9343      3.3424      3.4035
C     10.9030     -4.7158      0.4263
C     -1.3025      6.6652     11.4944
H      8.7522      2.3375     -2.9713
C      5.2723      2.2637      5.3586
H      1.9742     -1.0728      9.3584
H      4.9979     12.3645     16.2339
C      2.0767     -0.8389      8.2828
C      4.3662     -1.8504      7.3513
C     -2.0018      5.1564      3.5411
C      3.7346      9.9512     19.5762
C      2.6654      3.8127      2.8132
C      4.9435      6.9085     -3.0080
H      1.9388     -1.5285      7.3886
H      2.4645      7.4678     13.0325
H      9.7047      5.5376      4.3768
H      9.9347     -0.0896     -0.1859
H     14.2341     -9.5539      0.7045
O      5.5865      6.4802      6.2930
C     13.6912     -4.8880      4.3847
H      4.6670     -1.1987      6.3730
C     10.2192     -4.0533      3.6902
C     10.7532     -5.0760      2.8630
H      8.3449     -2.5287      8.2000
H      8.8240      3.7862      3.6954
C     -2.4199      7.7583      7.6496
H      9.3362      2.2673      1.6584
H      1.8867      2.3948      3.7962
H     11.7341     -2.3108     -0.7859
H      5.1225      4.8731     -1.5055
C      2.6253      1.2669      2.3171
C     12.7412     -4.3373      2.0511
O      4.4620      5.2262     -0.5448
O      7.3978      3.9231     -1.8078
C     -0.1786      2.9831      1.0860
C      0.1126      3.9937      4.1541
C      6.8235     -1.9577      7.0114
H      9.4155     -1.9178     -2.3644
H      2.7163      9.9558     19.1255
H     12.4899     -2.8295      4.3095
H     -0.2748      7.9465      9.9986
O     13.3512     -3.1130      6.1121
C      5.7674     -2.0237      7.9342
C      0.6425      7.1219      7.0689
C      1.4761      7.3868     13.6091
H      2.5595      8.5558     14.5434
C     13.6107     -5.2513      3.0127
H      7.9418      0.0024      8.8769
C      2.4114     -0.4615      4.0981
C      0.7521      2.2546      7.5902
C     10.1345     -2.2671      6.8188
C     -1.9979      3.0730      4.9356
C      5.3426     12.0555     17.3181
C      3.6265      3.4395     10.4309
C      0.5189      2.4082      2.1545
C     11.5720     -5.2400      1.5792
C      3.5546     -1.1700      8.4810
N      1.4604     -1.4802      4.6609
C      2.4457      1.0712      0.5561
O      5.0608      6.4342      1.3585
C      9.7412      6.3659      0.2150
H      5.5379     10.0684     18.7304
C     -2.3032      4.5820      2.3751
C     -2.8087      7.4615      8.9558
H      7.9657      2.9713     -4.7319
H      1.9471      0.2392      6.7105
H      7.2215     -4.0726      5.7294
C     10.6291     -3.4393      0.2190
H      5.5796      7.8555     -2.7107
H      2.4773      7.5706      9.1949
H     12.2354     -3.3191      2.3649
H      1.5858      8.8733     10.1629
H      3.4104      0.9367      0.1523
H     -0.3163      3.1687     -0.7490
H     -0.1324      3.6086      8.6839
C      2.0316      7.6914     15.1016
H      1.8691      0.0155      0.3477
C      1.4102      9.1291     11.2046
C      7.2087      9.5741     12.3401
H      7.8787      5.5674     -1.7632
C     10.9481     -2.9172     -1.0941
H      0.6487     -1.2900      5.3704
C      4.4930      8.4312      4.4755
C      7.9057      7.7229      3.3197
C      8.4330      9.4315     14.2546
C      6.1712      8.9638     14.9927
C      4.0726      6.1276      6.4053
C      2.1196      5.1331      2.4490
C      6.3113      5.7559      0.6726
C      5.6278      7.4693      4.1440
C      8.3544      6.6348      0.6162
H      1.8808     10.2038     11.0759
C      4.4296      5.1786     -5.1961
O      0.1809     10.9468     13.4360
C     14.7554     -7.6045      0.9244
H     -3.5053      8.0010      7.2041
C      6.3013      7.0271      5.3609
H      0.6497      1.1760      5.9503
H      9.7484      2.0085      0.0043
H     -3.1143      4.8799      1.9033
C      7.5871      5.7990      1.4115
H      0.1463      2.9519      3.2885
O      7.4693      7.3553      5.6416
H     -5.2093      9.0870     10.9593
H      9.1046      8.9645     14.7357
H     14.0342     -8.7110     -0.9694
H      4.5267      5.0367      4.4845
C     -0.2331      7.4414     10.9983
H      5.9995      4.5649     -6.2007
C      2.9245      6.3001     15.8154
C     -1.3341      4.4252      4.7077
C      0.4533      6.9654      5.3770
H      5.3918     -3.7707      9.4609
H      3.2799      2.0655      5.0185
C      1.4428      5.7438      4.8895
H      1.2870     -0.3738      2.0355
H     -2.4458      6.5717      9.4436
C      6.9077     -5.4176      8.0624
C      4.0486      0.4233      8.5125
C      6.5602      7.8263      2.9326
C      9.3820     -3.1327      5.7257
C     12.8400     -6.5466      2.9348
C     -1.5011      6.6520      3.6187
H     10.0364     -0.7759      8.4838
H     15.6495     -8.9952     -0.2492
H      3.8649      8.2811     14.6649
H      5.2688      4.2135      1.3498
H     -2.7150      3.1104      5.7127
C      1.9789      1.3223      9.6322
H     11.4222     -2.2714      6.5890
C      0.7634      5.2578      3.5483
C      5.1746      4.0210      3.3339
H      1.0857      4.9149      8.0860
H      5.0041      8.4985     20.2712
C      7.3941      3.7176     -2.9545
H     11.1398     -1.5697      0.5123
H      6.5105     -1.2239      6.2911
C      2.2803      6.7242      8.8310
C     -1.3227      5.5918      5.7810
C      2.1736     -0.0524      2.7970
C      1.5187      4.7145      5.8250
C      2.0088      6.8281      7.3814
C     14.6458     -8.8534     -0.0219
H     11.3371     -7.1883      1.6804
H      3.7079      1.5668      2.7976
H     -3.3023      9.5451      8.6001
H      1.8497      1.7659     -0.0191
H      6.0867     -5.7865      9.0534
H      7.2339      1.6321     -3.6367
H      9.0728     -2.2779      5.2126
C      8.0434     -0.4774      0.0048
H      5.9819      1.5092      3.5677
C     12.6950     -3.6394      4.9762
C     -3.7751      8.5027      9.2948
H      5.9489      3.7800     -0.2900
H      9.4807     -3.2050      3.5371
C      8.1005     -1.5411      7.8088
H     -1.9029      3.4920      2.1995
H      8.8558     -3.5918      6.4019
C      0.0955      8.1047      7.7194
C      0.8852      3.5356      5.3749
O      8.9705      6.0559      4.6765
C     11.6047     -4.7848      5.6528
C      6.1772      1.1733      7.6336
C      5.2893      1.5717      6.4535
C      2.9024      0.4737      6.4511
H      6.1449      2.2101      8.1754
H      5.1067      2.8046      8.9752
H      7.8515     -1.2042      9.8141
H     13.6622     -4.1166      6.7778
H      4.1015      0.3326      4.9039
H      0.2758      8.4573      8.7028
C      1.8998      5.0249      7.4066
H     -0.4023      4.0683      1.1327
C      3.8975      5.3523      5.2391
C      4.0113      2.6271      9.3666
H      7.2478     -1.3735      0.0283
H     13.5502     -6.8813     -0.4780
C     -4.4433      8.2626     10.5370
H      4.5043      3.8442     10.9403
H     -1.2113      5.9264     12.3734
C      4.0131      2.9165      4.8596
C      4.5888      9.7735     18.4039
C      5.9595     -0.9511      8.7985
C      6.7418     -3.3587      6.5304
C      5.6314      4.5238     -5.0782
C      5.6187      0.4162      8.7915
H     -0.8360      3.5673      6.9886
H      8.0772     10.1520     12.5177
H      5.6202     -1.6223      9.6021
H     10.4618      6.1531      1.1298
C      1.4320     10.0036     13.5294
H      2.7554      3.1197     11.1746
H     11.1637     -3.1588      3.8410
