289

C      7.1882      8.7234     13.7641
N     10.8025     -2.4604      0.9492
C      3.6641      1.5203      7.2855
C      1.9934      2.6811      2.7998
H      0.9872      0.7678      9.7133
C      7.7940      5.0414      2.5811
H      9.7688     -5.5713      2.5588
C      7.9276      3.8558      3.2047
C      3.5408      3.9114      5.8206
C      6.3196     10.3644     11.7244
C      3.3298      7.4203     19.6244
C      6.3134      2.0267      4.2984
C      6.2176     -3.3288      8.7337
C      0.8814      8.7529     13.6203
C      9.1907     -1.0393     -0.1492
C      8.0554      0.8412      0.7039
N      1.1428      2.3313      5.9959
H      5.2056     10.1961     11.6903
C     13.5665     -6.7774      0.6875
O     -0.6991      2.4652      0.2714
C      3.3852      4.0257      7.2755
H      0.4057      6.5155     10.7996
H      7.3794      1.1822      1.4083
C      2.7652      6.3447     17.4036
C      3.8320     10.6315     16.4415
H     -1.0814      2.3177      5.4869
H      4.2364      5.9191      1.0121
C      4.0337      9.2789     16.0240
H      4.8378      7.6007     -3.6274
H      7.0910     10.7590     11.1424
H      3.8295      5.4284     -4.1482
H     -1.1546      5.1872      6.7777
H      5.7108      1.3662      9.4069
C      3.0953      2.7600      7.9992
H     10.2265     -1.1530     -2.2620
H      7.3790      2.0198      4.3441
C      7.6311     -0.8116      9.1408
C      9.5870     -1.7527     -1.4898
C      6.1152      5.9515     -2.9254
H      1.9924     -0.1048      7.9106
H      1.9362      6.1345      9.4224
C      6.5611      3.4236      3.5411
H      5.3443      3.2056     -4.6404
H      3.9560     -1.7028      9.2246
H      3.3363      7.2000      8.8322
C      4.6879     10.9707     17.3659
C     10.1346     -4.2177      4.9800
O     15.1527     -4.2863      4.6867
C     -1.3398      8.2646      7.1170
C     -3.9620      8.0346     11.8249
C      7.7915      7.6974     12.8469
C      6.6827      6.8808     -0.7294
H      4.9269      5.0982      2.4593
H      4.7238     10.2235     14.3375
H      2.0520     -2.6712      4.9712
C      7.7329      2.5632     -3.8443
H      0.5060      1.3033      2.1927
C      7.1772      6.3295     -2.0074
C      8.2808      6.1743      3.3811
H      8.1628      8.0953      2.0571
C     -1.0071      6.8309      5.1954
H      3.8927      8.7608     21.4243
H      4.1944     11.1127     15.4592
H      3.7832      6.7201     15.3403
H      2.5739      4.7645      9.7659
H     15.3737     -7.2977      0.6314
C      9.4944     -1.3952      7.6434
C      6.3610      4.6697     -3.6220
C      3.1431      7.8937     18.0197
C      9.2869      1.3405      0.7212
C      5.8772      4.4689      0.0535
C      4.7744      9.2289     14.7335
H      9.2458     -5.0123      5.1406
H      8.3099      8.3068      3.6943
H      3.5318      0.5452     10.6547
H      7.2042     -2.9062      9.4214
H      5.5454     12.5576     18.4063
C     -0.2316      3.1941      7.8806
H      8.3221      9.7748     15.2806
C      0.9023      8.5077     11.9749
C      1.8040      2.2336      8.5073
H     -1.4442      5.8379     10.9223
H     10.2510     -3.9239     -2.1016
C     12.3298     -6.6755      1.5122
H      6.0976      7.8543     -0.9177
H     -1.6184      2.5613      3.9982
H      7.7245     -6.1424      7.0739
C     -2.6496      7.3844     12.4154
O      2.3992     10.6492     13.2277
C      6.3468     -4.3554      7.6912
C      3.9108      8.7172     20.2522
C      3.4915      1.1622      9.7184
C      2.9735      0.2272      5.1205
H      8.2949     10.1630     13.4421
H     10.3905     -2.3881      1.8110
H      7.0076      1.3257      6.8374
H     -2.3500      6.0708      6.1310
H      4.0239      6.6102     -2.5447
C      4.1057      3.7717      3.4575
C     10.9107     -4.7227      0.3871
C     -1.3762      6.7871     11.6338
H      8.6336      1.8534     -3.6123
C      5.3031      2.1910      5.4082
H      1.5370     -1.3917      9.0414
H      5.1272     13.1489     17.1285
C      2.1700     -0.9697      8.3618
C      4.6451     -1.7238      7.3961
C     -1.9898      5.0972      3.5920
C      3.8252      9.9330     19.5017
C      2.9629      3.8533      2.6294
C      5.0197      7.0012     -2.8738
H      2.7945     -1.3257      7.4691
H      2.5961      7.4475     13.1373
H      0.3472     11.8514     13.7169
H      9.6838      6.5596      4.4601
H     10.1086     -0.5620      0.1969
H     14.9407     -9.6045      0.7734
O      5.5548      6.4319      6.3409
C     13.7912     -4.7259      4.4635
H      4.8399     -0.8323      6.6013
C     10.2079     -3.8651      3.5860
C     10.7633     -5.1422      2.8831
H      8.1099     -2.7768      8.4100
H      8.8630      3.4243      3.5322
C     -2.7123      7.7275      7.4064
H      9.4829      1.7945      1.7642
H      2.0271      2.4867      3.8846
H     11.7445     -2.4635     -1.0278
H      4.8693      6.0692     -0.5020
C      2.7371      1.2692      2.5573
C     12.7063     -4.1502      1.8630
O      4.5684      5.1120     -0.6504
O      7.6674      3.8613     -1.8725
C     -0.1360      3.1347      1.3609
C     -0.2004      4.0970      4.0898
C      7.0194     -2.0124      6.9613
H      8.8834     -1.8609     -2.3178
H      2.6154     10.5035     19.5349
H     12.6148     -3.0628      4.1698
H     -0.5026      7.7120     10.2128
O     13.3156     -3.1471      5.9861
C      5.9385     -2.0273      8.0148
C      0.7727      7.3791      6.9492
C      1.6265      7.3792     13.8370
H      2.3552      8.8989     15.7221
C     13.5588     -5.1703      2.9340
H      7.6192      0.1491      8.6504
C      2.2483     -0.6035      4.1608
C      0.6856      2.4032      7.5070
C     10.3055     -2.1063      6.6136
C     -1.9067      2.8920      5.0138
C      5.3631     12.1340     17.5183
C      3.0866      3.8547     10.2946
C      0.5571      2.4714      2.1857
C     11.6362     -5.1790      1.6633
C      3.6037     -0.9584      8.4487
N      1.5306     -1.5536      4.8836
C      2.2546      1.0457      0.8844
O      5.1605      6.2123      1.4997
C      9.7073      6.4246      0.3350
H      5.7793     -3.5979      5.7589
C     -2.4574      4.5698      2.5474
C     -2.6036      7.5607      8.9170
H      7.9604      2.8629     -4.8320
H      1.4831      0.5282      6.5842
H      7.1839     -3.6022      5.5284
C     10.6498     -3.4395     -0.0003
H      5.3754      7.6766     -2.1987
H      1.7037      7.7953      8.9575
H     12.3062     -3.2693      2.3391
H      1.5579      9.2797     10.0546
H      2.6822      1.6339      0.1125
H     -0.6760      3.3167     -0.5266
H     -0.7995      3.4202      8.8261
C      2.1392      7.6488     15.2608
H      2.0477     -0.0052      0.5099
C      1.5671      9.3137     11.1765
C      7.0361      9.6182     12.5342
H      8.0983      5.9915     -2.0246
C     10.6921     -2.9855     -1.3301
H      0.7906     -1.8584      4.3644
C      4.4899      8.5975      4.4928
C      7.8657      7.5258      2.9890
C      8.3842      9.3736     14.2381
C      6.0718      8.5019     14.7560
C      4.2214      6.0948      6.5458
C      1.9543      5.1107      2.3839
C      6.2894      5.8179      0.4613
C      5.4737      7.4630      4.0882
C      8.4580      6.5262      0.5622
C      4.3461      5.1314     -5.1710
O      0.0544     10.8878     13.4395
C     14.5179     -7.7966      0.8642
H     -3.8049      8.1460      7.1246
C      6.2798      7.0213      5.4008
H      0.5882      1.8018      5.3129
H     10.0765      0.8711     -0.0256
H     -2.8007      5.0312      1.7030
C      7.5074      5.5804      1.2991
H      0.0069      3.5271      3.2877
O      7.5717      7.2889      5.6104
H     -5.5328      8.6072     10.3823
H      9.3552      8.7518     14.0001
H     14.0602     -9.4279     -0.6415
H      4.8659      5.2214      4.9135
C     -0.2116      7.5853     11.1658
H      6.5819      4.2908     -5.6149
C      2.8019      6.3079     15.6485
C     -1.4005      4.2853      4.7144
C      0.5020      7.0915      5.3021
H      5.5186     -3.8078      9.2773
H      2.9618      2.1001      4.8547
C      1.3725      5.9491      4.9834
H     -2.2359      6.3724      9.1578
C      7.0536     -5.5323      7.8653
C      4.0057      0.6127      8.4481
C      6.3123      7.6632      2.8276
C      9.3896     -3.0846      5.7685
C     12.8656     -6.4746      2.9585
C     -1.5364      6.6247      3.7597
H     10.3749     -1.3478      8.5700
H     15.7658     -8.7977     -0.5362
H      3.9430      8.7130     14.2008
H      5.6745      3.8484      0.9152
H     -3.0283      2.7445      5.5120
C      1.9815      1.1481      9.3887
H     11.1398     -2.6376      7.2055
C      0.7431      5.2284      3.5418
C      5.4367      4.1476      3.1646
H      1.2631      4.4912      8.2058
H      4.9766      8.5569     20.2031
C      7.3437      3.5632     -2.9821
H     11.3277     -1.3643      0.9222
H      6.7506     -1.4071      6.1480
C      2.3679      6.9654      8.7235
C     -1.4021      5.5244      5.8990
C      2.2750     -0.0297      2.9649
C      1.2467      4.8337      6.0129
C      2.0156      6.6258      7.4566
C     14.8108     -8.8951      0.0182
H     11.7530     -7.6347      1.6572
H      3.8061      1.3581      2.8265
H     -3.7293      9.3406      8.9063
H      1.2564      1.5239      0.8939
H      6.8783     -6.1111      8.9949
H      7.0094      1.9172     -3.5762
H      9.3847     -2.5674      4.7030
C      7.9937     -0.3337     -0.0761
C     12.6404     -3.8227      5.0784
C     -3.7360      8.3663      9.3099
H      6.4546      4.2697     -0.9558
H      9.2889     -3.3820      3.2401
C      8.0829     -1.7063      8.0581
H     -2.8825      3.4790      2.4606
H      8.7397     -3.6639      6.3799
C     -0.0142      7.7412      7.8636
C      0.9179      3.7944      5.2855
O      9.0272      5.7502      4.5730
C     11.5436     -4.6536      5.6039
C      6.1369      1.5890      7.3960
C      5.0663      1.4128      6.4787
C      2.7096      0.4879      6.5435
H      5.8733      2.4599      7.3941
H      4.7731      2.9813      9.6540
H      7.8272     -1.3038     10.0258
H     12.7486     -3.0160      6.7505
H      3.9583      0.2115      4.4217
H     -0.4649      7.7023      8.9524
C      1.8916      5.0216      7.3288
H     -0.4341      4.1954      1.2921
C      3.8760      5.3546      5.3611
C      3.8530      2.6837      9.4993
H      7.0357     -0.5312     -0.5705
H     13.4765     -6.8118     -0.6996
C     -4.5801      8.0138     10.6318
H      3.8523      4.2499     11.0919
H     -0.6413      6.1228     12.4522
C      4.0162      2.9337      4.8174
C      4.6774      9.8618     18.3464
C      6.0593     -0.8914      8.8604
C      6.6243     -3.4416      6.5310
C      5.7878      4.4690     -4.8253
C      5.4130      0.5227      8.7267
H      7.6743      9.7539     11.7418
H      5.7110     -1.2602      9.8739
H     10.1624      5.5105      0.4169
C      1.4448     10.0845     13.8725
H      2.3350      3.2114     10.5806
H     10.6344     -2.7920      3.7087
