286

C     20.0213      8.8804     13.4609
N     -2.2921     10.2189      1.2939
C      3.5931      1.4367      7.0455
C      2.1680      2.6160      2.0756
H    -11.5764     14.4579     10.1999
C      7.3928      5.2095      2.4343
H     -3.1062      7.3293      2.4871
C      7.6041      3.9923      3.1690
C      3.6557      4.2658      5.4586
C     19.6148     10.3431     11.3096
C     16.4582      7.4317     19.4879
C      6.4333      2.2645      4.1910
C     -6.7438      9.1003      9.2687
C     13.6000      8.6754     13.6377
C     -3.6912     11.9857     -0.8022
C     -4.3031     13.3263      1.0799
N      0.6337      2.5849      6.3362
C      0.7306      6.5327      0.7991
O     -1.2570      2.4361      1.5583
C      3.2529      4.3819      7.0055
H     13.3856      7.1427     11.2617
H     -4.9676     13.4360      2.0334
C     15.7669      6.5503     17.3405
C     17.0477     10.4223     16.2249
H     -1.5387      2.7738      5.9139
C     16.9372      8.8191     15.9672
H      4.8589      7.1749     10.4670
H     20.0507     11.3255     11.4717
H      2.1360      4.1201      9.6176
H      0.0736      5.4684      6.2343
H     -6.9211     14.7649      8.7101
C      3.0349      3.1100      7.8471
H     -3.6952     11.3627     -2.6077
H      7.3851      1.8932      4.6424
O     14.2486     10.1632     15.7554
C     -5.2108     12.4376      8.9120
H     18.7192     10.3526     13.2051
C     -3.3205     10.9651     -1.7647
C      6.3005      6.0243      9.5449
H      2.6790     -0.2988      6.6967
H      4.5401      5.6361      8.4868
C      6.3931      3.2663      3.1402
H      5.7120      3.2008      7.0365
H     18.4703     10.4494     10.9329
H     -9.2152     11.4300      9.3459
H      2.1629      7.5813      9.3652
C     17.4604     10.7664     17.4887
C     -2.5708      8.7768      5.0864
O      2.1369      8.7808      4.9965
C     -1.4488      8.1711      6.9899
C      8.5687      8.0049     11.8390
C     20.3543      7.5864     12.8238
C      6.2567      6.7804     -0.7784
H      4.9538      3.3883      1.4689
H     16.7493      8.2449     13.9410
H      1.9578     -2.1743      4.9509
H     -5.9398      6.5154      8.3478
C      7.8164      2.7219      8.4792
H      0.5462      1.6919      2.8436
C      7.1082      6.2143     10.9938
C      8.2748      6.3746      3.1250
H      8.3587      8.2915      2.4391
C     -0.8937      6.7614      5.1246
H     16.1806      8.7924     20.9796
H     16.7336     11.0065     15.5101
H      2.4348      5.8294      0.2676
C     -2.8319     11.2215      8.1787
C      6.3002      4.6254      9.0083
C     16.1438      7.8281     17.9794
C     -3.8797     14.7032      0.9373
C      5.0058      4.4343     -0.3485
C     17.5339      8.5380     14.7283
H     -3.2973      8.0473      5.1505
H      7.8335      7.7890      4.2163
H     -9.9581     13.6186     10.3966
H     -6.7694     10.2238      8.9797
H     18.8002     11.8723     17.8916
C     -0.8485      3.5806      7.9769
H     20.8281     10.1040     14.9181
C     13.2580      8.8865     12.1504
C      1.5827      2.7304      8.3896
H     10.8749      6.7039     10.8485
H     -1.2087     10.0216     -2.4382
C     -0.6417      6.5423      1.4344
H      5.3907      7.2761     -1.1678
H     -2.4437      2.3819      4.5844
H     18.2525      9.2131     12.5792
H      8.0165      5.8939      5.4852
C     10.0364      7.3177     12.6455
O     15.5396     10.1334     13.6963
C     -5.9303      8.5600      8.1018
C     16.9559      8.5634     20.2746
C     -9.6784     14.1824      9.3767
C      2.2955      0.9174      4.8750
H     -4.9331     11.4370      0.9961
H     -1.3462     10.5763      1.3627
H     -6.9572     12.8870      6.2044
H     -1.2346      5.6246      7.0702
H      3.1182      6.0845      9.1322
C      4.1761      3.6095      3.2473
C     -2.1341      8.3798      0.3401
C     11.1721      6.8768     11.7688
H      7.6460      1.5052      8.9837
C      5.3203      2.2989      5.0472
H    -10.7124     11.2107      9.2451
H     18.0236     12.6305     16.4846
C    -10.5728     11.5885      8.2845
C     -8.2848     11.2030      7.3034
C     -2.8015      5.0272      3.8608
C     16.7810      9.9933     19.5515
C      2.7749      3.6479      2.8850
C      5.1965      6.9186      9.4637
H    -11.1005     11.8575      7.3941
H     15.4907      7.5935     13.2440
H     -3.2192     13.0374     -0.9711
H      0.1216      3.5283     -0.2414
O      5.7497      6.8091      6.5402
C      0.8508      8.3634      4.4520
H     -8.3704     11.9632      6.4595
C     -2.6184      9.1938      3.6262
C     -2.3167      7.8979      2.9362
H     -4.7081     10.0982      8.7357
H      8.4389      3.7017      3.8526
C     -2.8532      8.3232      7.5219
H      2.6670      4.2954      4.8018
H     -1.2234     11.4731     -1.1730
H      3.5602      3.4348     -0.4001
C      3.0802      1.2457      2.2185
C     -0.0858      8.7665      1.9704
O      3.6335      4.4049     -0.0668
O      7.6921      3.4986     10.6051
C     -0.2088      3.3231      1.8683
C      0.1939      3.8359      4.1559
C     -5.5086     10.7339      7.2900
H     -3.7690     10.1687     -1.9962
H     15.7332     10.3490     18.9192
H     -0.2285      9.9496      4.7437
H     12.2278      8.3039     10.4832
O      0.4481      9.9496      6.3506
C     -6.9654     11.1292      8.1830
C      0.9151      7.5854      6.8655
C     14.5658      7.5620     13.8759
H     15.9029      8.4119     15.7896
C      0.9690      8.1741      3.0699
H     -4.9506     12.9178      7.8611
C      2.0876     -0.1618      3.9187
C      0.4186      3.2314      7.6195
C     -2.3750     10.7583      7.0226
C     -2.4069      3.1807      5.4874
C     17.7985     12.3970     17.6126
C      3.0858      4.1165     10.2012
C      0.8207      2.4344      2.1039
C     -1.5297      7.9102      1.5193
C     -9.1807     11.5756      8.3061
N      1.6210     -1.2177      4.7218
C      3.5071      1.1300      0.7861
C      9.4972      6.3042      0.5721
C     -2.7086      4.3518      2.7067
C     -3.2011      8.4598      9.1488
H      9.0737      2.7349      8.3108
H      1.7433      1.3521      6.7587
H     -5.1217      8.7330      6.1192
C     -2.2774      9.6958     -0.1522
H      4.8885      7.2016      8.5678
H      1.5048      5.8588      8.9827
H     -0.5596      9.8637      2.3396
H     14.7915      8.6118     10.9119
H      2.6431      1.1118      0.0961
H     -2.1460      2.9971      1.9509
H     -0.9621      3.4712      8.8733
C     14.8549      7.4950     15.2940
H      3.7852      2.2758      0.6720
C     14.3594      9.2188     11.5807
C     19.2443      9.6375     12.5386
H      7.4753      5.1551     11.3912
C     -1.7612     10.5237     -1.3695
H      1.1332     -0.5092      5.5973
C      4.5407      8.2773      4.6046
C      7.7971      7.5907      3.2094
C     21.1566      9.6440     14.0759
C     18.9055      8.7091     14.8386
C      4.4092      6.2945      6.3873
C      2.2986      4.8902      2.2652
C      5.9880      5.6042      0.1819
C      5.7933      7.5725      4.2501
C      8.1204      6.4963      0.7458
H     15.1420      9.8919     12.4855
C      4.4441      5.2377      7.5013
C      1.7547      5.2417      0.7840
H     -3.7381      8.2574      6.9732
C      6.3843      7.0910      5.4159
H      1.2399      1.4454      4.6769
H     -3.4218     15.2133      0.0737
H     -3.6202      3.6874      2.3736
C      6.9094      5.6791      1.1767
H     -0.6995      3.1125      3.9071
O      7.7780      6.9282      5.6327
H      8.6497      9.1144     11.6830
H     21.9607      8.8471     14.2850
H      1.2901      4.6313     -1.0644
H      4.9543      5.5182      4.2564
C     12.5688      7.8014     11.3121
H      6.4626      4.9768      6.7971
C     15.4262      6.2439     15.8687
C     -2.0052      4.5419      5.0174
C      0.5872      7.0239      5.2741
H     20.3060      9.6393     10.7204
H      2.4919      1.8946      4.3635
C      1.3591      5.9132      4.8343
H      2.6443     -0.7042      1.8112
H     15.1337     10.5171     15.8078
H     -2.5849      8.1988     10.0105
C     -5.1611      7.3815      8.2199
C     -8.7898     13.7069      8.3112
C      6.3768      7.8269      2.9596
C     -2.9668     10.1157      5.5541
C     -0.3546      6.1360      2.8472
C     -1.3775      6.7793      3.7273
H     -2.3983     12.0173      8.6860
H      1.6877      3.2559     -0.2053
H      5.1691      3.4469     -0.0944
H     -2.6116      3.3087      6.5469
C    -10.9197     14.7297      9.3747
H     -1.1340     10.6844      6.8342
C      0.5534      5.1545      3.7199
C      5.1597      3.6346      2.4717
H      1.3705      4.7717      8.1402
H     17.9766      8.5660     20.6710
C      7.1776      3.4652      9.5147
H     -3.0397     10.9583      1.7100
H     -5.1553     11.4130      6.6065
C      2.2200      6.6314      8.8617
C     -1.7314      5.6603      5.8552
C      2.2510      0.1040      2.5996
C      1.0089      4.9249      6.0740
C      2.0736      6.8550      7.3359
C      1.1118      4.1347     -0.1025
H     -0.9970      5.7867      0.6737
H      4.0736      1.3629      2.9589
H     -3.0170      9.5289      9.4875
H      4.5377      0.3034      0.7055
H     -4.7400      6.8496      7.3455
H      7.2056      2.8987      7.4711
H     -3.1489     10.6787      4.7181
C     -4.4081     12.1442      0.2386
H      6.3029      1.1620      3.8231
C     -0.1498      9.2179      5.2071
C     -4.2908      7.5710      9.4296
H     -3.3389      9.8495      3.0716
C     -4.5877     11.0135      8.4461
H     -2.1100      3.4922      3.0834
H     -4.1549     10.0646      5.7104
C     -0.2204      7.7967      7.6128
C      0.3174      3.7220      5.5783
O     -3.5484      6.0672      4.1226
C     -1.3654      8.3079      5.4369
C     -6.8556     13.6861      6.8383
C      4.9743      1.5181      6.1534
C      2.4048      0.6894      6.4285
H     -5.9844     14.4574      6.2770
H     -4.7305     12.6100      9.8759
H     -0.0270     10.8407      6.4487
H     17.7017     13.2872     18.2591
H      0.1442      7.4832      8.7188
C      1.9422      5.0627      7.2170
H      0.0088      4.2752      1.7256
C      4.0886      5.5861      4.9358
C      3.7558      3.3998      9.1166
H     21.5120     10.2975     13.3042
H      0.3690      6.3168     -0.1645
C      8.1404      7.2518     10.6490
H      2.7778      3.8074     11.2455
H     11.5942      5.7819     12.1525
C      4.4355      3.3792      4.7342
C     17.7840      9.5932     18.3064
C     -6.5328     12.3764      8.8917
C     -5.6784      9.3190      6.8651
C      5.7313      4.3946      7.6403
C     -7.2504     13.7078      8.2850
H     -1.4276      3.7916      7.2428
H     -3.1898      9.2628     -0.5203
H     -7.1281     12.2993      9.9964
H      9.8205      5.6236      1.2406
C     14.4871      9.8591     14.1997
H      3.2212      5.1641     10.0121
H     -1.5593      9.8540      3.4602
