10

O     10.9289      1.4881      1.9191
H     11.9075     -0.2453      3.3660
H     11.8751      1.3676      4.3027
C     11.9522      2.4232      1.7881
C     13.3190      2.1623      1.4111
O     12.2080      0.8098      3.5431
H     13.8947      1.2826      1.7063
H     11.8200      1.4631      2.8803
H     11.4714      3.2613      1.1517
H     13.8964      3.0731      1.4803
