6

C      9.7257      0.0728      0.7649
H     10.4072     -0.2455      1.5654
C      9.5153      1.4761      0.9102
H      9.8123      1.6793      1.7883
H      9.7325      2.2718      0.0787
C      9.2660     -0.6020     -0.3167
6

C      9.9255      0.1594      0.3474
H     11.0998     -0.1645      0.4330
C      9.4164      1.4005      0.6654
H      9.1638     -1.8054     -0.3464
H      8.4130      0.9243      0.9957
C      9.0774     -1.0374      0.3341
6

C      9.9912      0.3024      0.4464
H     11.1206      0.2758      0.1337
C      9.3158      1.3665      0.8974
H      8.3708      1.0235      1.1996
C      9.0598     -0.7707      0.2410
H      7.9812     -0.6873      0.2920
6

C      9.9048      0.2032      0.3345
H     11.2319      0.3889      0.2384
C      9.3832      1.3334      0.9685
H      8.5166      0.9043      1.3501
C      9.1676     -0.8669      0.0125
H      8.3850     -0.7724      0.6822
