17

C     10.3562     12.3497     11.6889
C      9.4785     12.8641     13.8758
H     10.1485     12.0845     14.3148
H     11.0244     11.3652      9.9609
C     10.1645     11.3573     10.5049
H     10.7567     10.7613     12.2818
C      9.4333     14.0797     14.5908
H     11.7238      9.9547     11.2467
H      8.3929     11.8537     12.3688
H     11.4280     12.2159     12.1198
H      9.2877     14.0818     15.6507
H     10.0817      9.6834     10.7951
H      9.3237     11.7095      9.9847
C     10.6631     10.1291     11.4625
H      8.7615     14.7324     14.1491
C      9.1472     12.5531     12.3922
H      8.4858     13.3022     11.8050
17

C     10.3027     12.3310     11.6010
C      9.5211     12.8640     13.8379
H     10.5673     12.5943     14.0403
H     11.1204     11.3004      9.8528
C     10.4438     11.3048     10.5734
H     10.4473     10.6859     12.6317
C      9.2061     14.0211     14.3412
H     11.7685     10.2421     11.2107
H      8.4387     11.6936     12.4776
H     11.4245     12.5618     12.1646
H      9.6176     14.0553     15.3155
H     10.1597      9.4419     11.9654
H      9.4197     11.4197     10.3140
C     10.6904     10.2707     11.4781
H      8.7760     14.8317     14.0144
C      9.1715     12.6376     12.4456
H      8.4471     13.3730     11.6489
17

C     10.3090     12.5053     11.5007
C      9.4541     12.8872     13.8134
H     10.3145     12.3164     14.0964
H     11.1020     11.3962      9.6799
C     10.3384     11.4074     10.4914
H     10.8428     10.8994     12.4708
C      9.2687     14.1354     14.3060
H     11.9598      9.7878     11.1287
H      8.5179     11.6408     12.5918
H     11.2649     12.7413     11.5558
H      9.7191     14.6090     15.2230
H      9.7850      9.7505     11.3759
H      9.3871     10.9969     10.5242
C     10.7880     10.2978     11.5287
H      8.5092     14.8626     14.0292
C      9.1789     12.4450     12.3399
H      8.3276     13.0687     11.7342
17

C     10.2840     12.5196     11.4583
C      9.4466     12.8263     13.7188
H     10.3071     12.4598     14.2634
H     11.1255     11.7283      9.6402
C     10.4110     11.3806     10.5876
H     10.7329     10.9153     12.4169
C      9.3002     14.0797     14.3032
H     11.9208      9.9814     11.3299
H      8.7030     11.4239     12.4090
H     11.5017     12.7842     11.6787
H      9.8381     14.3112     15.2467
H      9.9020      9.7390     11.3052
H      9.4314     10.8710     10.3865
C     10.8285     10.2588     11.5241
H      8.4876     14.7362     14.0704
C      9.2625     12.4244     12.3009
H      8.5727     13.0803     11.7488
17

C     10.1206     12.6331     11.3237
C      9.5211     12.9542     13.5469
H     10.3061     12.2847     13.9515
H     11.3119     11.4650      9.8854
C     10.4177     11.3604     10.6833
H     10.8911     11.1342     12.4358
C      9.3437     14.0919     14.2659
H     11.6509     10.1107     11.2625
H      8.9170     11.3502     12.2854
H     11.0667     12.8148     11.7765
H      9.7537     14.1599     15.2263
H      9.8594      9.5778     11.5370
H      9.5458     11.3925     10.0021
C     10.6793     10.3551     11.7188
H      8.8838     15.2157     13.8573
C      8.9950     12.3828     12.2666
H      7.6861     12.5510     12.5222
17

C      6.6964      9.3204     10.5614
C      6.4675      7.9723      9.8114
H      6.2748     11.1787     11.8475
H      6.4813      9.0800     11.4437
H      4.7779      6.9011      8.8051
H      6.2680     11.6075      9.9940
H      4.8484     11.0754     10.4349
C      7.0437      7.9618      8.4739
C      5.0391      7.6223      9.5347
H      6.3631      8.3814      7.8168
H      8.6885      8.4832      7.5613
H      4.8008      8.5603      8.8826
C      5.8913     10.8415     10.8169
H      4.2373      7.4443     10.1502
H      7.3421      6.9241      8.6073
H      7.7107      9.6575      8.1565
C      8.1727      8.8764      8.3896
17

C      6.9990      9.7473     10.1926
C      6.2430      8.7327      9.3914
H      6.1930     11.4511     11.4999
H      8.1189     10.1655      9.9238
H      7.1397      9.6349     11.1612
H      4.6986      7.4490      9.3027
H      6.8091     11.7259      9.9299
H      4.9673     10.9759     10.4500
C      6.8248      8.4113      8.1841
C      5.0044      8.1532      9.9446
H      6.5035      7.5763      7.5290
H      8.7675      8.8461      8.3834
H      4.0038      8.8673      9.6525
C      6.0124     11.1063     10.4682
H      7.5289     10.0213      7.8854
H      8.3529      8.8936      6.7147
C      8.0149      9.0842      7.7690
17

C      6.8993      9.7636     10.2137
C      6.3001      8.8736      9.4064
H      6.1894     11.1336     11.6310
H      7.7089     10.3726      9.7565
H      7.1923      9.2753     11.0098
H      4.5584      7.6526      9.0017
H      6.5010     11.8646      9.8146
H      4.9111     10.6943     10.6828
C      6.7344      8.4889      8.2235
C      4.8914      8.2582      9.8912
H      6.6587      7.5068      7.7373
H      8.8536      8.7664      8.3237
H      3.9990      8.6113      9.4763
C      5.9674     10.9215     10.4598
H      8.1249     10.1826      7.8281
H      8.1941      8.9228      6.7684
C      8.0850      9.0527      7.7858
17

C      6.8952      9.8713     10.3165
C      6.1096      8.8550      9.4392
H      6.0342     11.1566     11.7301
H      7.8016     10.3290      9.6764
H      7.0121      9.2182     11.0990
H      4.7915      7.8428      8.6691
H      5.4177     11.9718     10.3201
H      5.0209     10.0605     10.5561
C      6.7767      8.6822      8.2320
C      4.6516      8.3483      9.5462
H      6.3698      7.7173      7.8810
H      8.6458      8.7432      8.4763
H      4.1701      9.3965      9.8175
C      5.8314     10.7563     10.7768
H      8.3729     10.1962      7.8207
H      8.0584      8.9184      6.7929
C      8.0791      9.1911      7.7633
17

C      6.4006      9.9225     10.5829
C      6.1882      8.8613      9.5515
H      6.7770     11.5701     11.1953
H      7.2095     10.2966      9.8519
H      6.9501      9.4260     11.5977
H      4.5473      7.5597      9.0716
H      5.5873     11.1001      9.3588
H      5.5143     11.4345     11.8401
C      6.7293      8.5660      8.3186
C      4.7268      8.4452      9.6509
H      6.1517      8.2491      7.4168
H      8.7703      8.9434      9.1436
C      5.7367     11.1683     10.5831
H      4.4233      8.4047     10.6009
H      7.8420     10.1176      8.4733
H      8.8019      8.6522      7.2678
C      8.0483      9.1428      8.2074
17

C      6.4186      9.9351     10.6121
C      6.1890      8.7733      9.5969
H      6.7277     11.7995     10.7749
H      7.3927     10.0725     10.0505
H      6.9768      9.3969     11.3114
H      4.3083      7.4597      9.1312
H      5.3152     11.0917      9.5290
H      5.3125     11.4471     11.5084
C      6.7398      8.6246      8.4178
C      4.6310      8.3298      9.5677
H      5.8871      8.3773      7.5950
H      8.6229      9.0610      9.0066
C      5.8085     11.1931     10.6252
H      4.3187      8.0476     10.4635
H      7.8134     10.4887      8.2150
H      8.1386      9.1101      7.0645
C      8.0142      9.3013      8.1677
17

C      6.6309      9.8816     10.5926
C      6.2041      8.7890      9.6264
H      6.5081     11.9998     10.3751
H      7.6204     10.2245     10.3772
H      7.0873      9.9520     11.5398
H      4.4133      7.8761      8.6834
H      4.9764     10.8739      9.9747
H      5.6459     11.0568     11.6716
C      6.8171      8.6263      8.3283
C      4.6509      8.4049      9.6738
H      6.2099      9.0643      7.3370
H      8.6585      9.0203      8.6186
C      5.8038     11.1520     10.6411
H      4.3668      7.6494     10.4293
H      7.3411     10.4328      7.7487
H      8.1030      9.3068      7.0226
C      7.9092      9.4864      8.1501
17

C      6.3999      9.3821     10.5541
C      5.8620      8.6073      9.3165
H      7.4636      9.1182     10.7037
H      5.6755      9.3883     11.2829
H      3.8287      7.9998      9.1829
H      5.1958     11.3667     10.0151
H      6.1654     11.3731     11.2998
C      6.7843      8.7502      8.4288
C      4.4221      8.3587      9.8113
H      6.9696      8.2482      7.3736
H      8.9172      8.4863      8.4512
H      4.0404      9.2145     10.0269
C      6.2195     10.8496     10.3543
H      4.4216      7.5764     10.8254
H      7.7441      9.8243      9.6612
H      8.7214     10.0114      8.0337
C      8.1081      9.2953      8.7303
17

C      6.3645      9.4233     10.6294
C      5.8811      8.6060      9.4662
H      7.2353      8.5073     10.7423
H      5.8127      9.2013     11.5229
H      4.0029      7.9838      8.9776
H      5.4717     10.7911      9.7263
H      6.0653     11.4697     11.3405
C      6.7198      8.7627      8.3954
C      4.2921      8.3392      9.8685
H      6.7062      8.3635      7.4074
H      8.8774      8.7001      8.0342
H      3.6761      9.2041     10.1738
C      6.3018     10.9579     10.3980
H      4.1830      7.7261     10.5801
H      8.7182      9.3394      9.7407
H      8.4483     10.2619      8.1272
C      8.1299      9.2396      8.5596
17

C      6.3515      9.4548     10.6381
C      5.8333      8.6544      9.5974
H      7.3436      9.2659     10.8503
H      5.9351      9.5772     11.6439
H      3.9339      7.7417      9.1077
H      5.5002     11.2230      9.6304
H      6.1791     11.2842     11.3434
C      6.6704      8.6477      8.4910
C      4.3536      8.2729      9.8658
H      6.1779      8.5482      7.4759
H      8.5635      8.6523      7.8284
H      3.4926      8.9689      9.8037
C      6.3975     10.9785     10.3073
H      4.3733      7.8115     10.7272
H      8.4452      8.7319      9.6007
H      8.3109     10.2915      8.4370
C      8.0082      9.2046      8.6134
17

C      6.2747      9.7051     10.7423
C      5.7665      8.6843      9.9341
H      7.2110     11.3027     10.0241
H      5.8553      9.8918     11.7378
H      3.6359      7.8230      8.9629
H      5.5751     11.1181      9.5351
H      6.0278     11.6420     11.2285
C      6.5573      8.7567      8.7819
C      4.4141      8.2645      9.8828
H      5.8648      8.7683      7.8380
H      8.4259      8.9571      7.9287
H      3.5280      8.9426     10.1151
C      6.2251     11.1527     10.2651
H      4.3009      7.3310     10.6304
H      8.6153      9.7654      9.4388
H      7.7053     10.3345      8.4463
C      7.8935      9.4521      8.7433
17

C      6.3461      9.8917     10.9282
C      5.8673      8.8418      9.7187
H      6.9564     11.1296      9.4534
H      5.3329      9.5956     11.4273
H      4.4391      7.3922      9.1037
H      5.5672     11.4329      9.5436
H      6.3937     12.2135     10.7879
C      6.6617      8.6416      8.6312
C      4.3330      8.3004     10.1237
H      6.6811      8.4575      7.6634
H      8.5679      9.0083      7.7699
H      3.4447      9.0231     10.2356
C      6.1905     11.1845     10.2708
H      4.5323      7.6688     11.2475
H      8.3442      9.1886      9.5431
H      7.9891     10.4779      8.2435
C      7.9141      9.4236      8.6202
17

C      6.1064      9.9081     10.7864
C      5.8273      8.8170      9.8022
H      6.9469     10.8192      9.4889
H      5.2143     10.0509     11.5232
H      4.1079      7.4917      9.2635
H      5.3794     11.4042      9.6779
H      6.7066     12.2725     10.8300
C      6.6359      8.6612      8.6135
C      4.4093      8.3593      9.9846
H      6.3659      8.3062      7.7123
H      8.7974      9.0995      7.9366
H      3.5125      9.1208     10.2311
C      6.3048     11.2127     10.2400
H      4.3762      7.6897     10.9517
H      8.3928      9.3827      9.5921
H      7.9931     10.4564      8.6021
C      7.9497      9.3391      8.6706
