26

O     18.7817     64.2553     20.7368
C     23.3911     66.4088     19.7591
C     22.1921     66.4460     19.4127
C     20.7905     66.5523     19.1071
C     24.7034     66.9733     19.3475
C     20.9205     66.2436     23.7487
C     19.4266     64.4231     19.6395
H     21.2884     63.2650     25.1890
H     21.9558     64.4558     25.3292
C     20.5204     64.9742     24.3151
C     26.4601     69.2962     19.9164
N     20.9687     66.7085     22.4359
O     25.7005     69.7012     20.8778
O     26.5683     66.6004     21.2398
O     24.7281     66.0698     16.3714
C     25.2246     67.0454     16.9053
C     20.1619     65.6452     19.9769
C     20.8278     66.1662     21.1979
C     25.3100     67.6131     18.1782
C     20.9964     64.4498     25.2892
O     19.5571     63.6346     18.4687
H     19.6190     62.6799     18.7221
H     21.5885     66.6867     24.4781
C     26.0575     66.9806     20.0890
C     26.4187     68.1687     19.2599
O     19.9395     67.2524     18.4556
