27

C     34.3007      9.7959     23.0684
O     30.8656     11.9955     24.5277
O     35.4900     10.2285     22.9302
H     29.9565     10.4807     27.2444
O     33.7883      6.2205     23.9050
C     31.0983      6.5222     22.9899
C     31.1302     10.7746     24.8136
O     29.3811      6.1971     27.5385
C     32.7745      6.2377     24.6796
O     27.0336     10.3256     26.1622
C     31.2687      8.0560     23.6161
C     32.2225     10.2713     23.9896
C     33.4018      8.9261     22.2035
H     32.6748      5.3309     26.4650
C     31.4506      6.7853     24.3899
C     30.4375      7.0934     25.4707
C     30.1557      9.5998     25.2511
C     33.3429     11.0242     23.6382
C     29.7223      6.4159     26.3718
O     34.0446      8.1747     21.4425
C     29.4791      9.7672     26.6031
C     28.1981     10.0060     26.3585
C     32.2612      8.9804     23.1366
O     31.3623      5.5901     22.1331
O     32.7091      6.2325     26.1788
O     34.1005     11.9969     23.9955
C     30.1656      8.3492     24.5963
27

C     34.7367     10.6466     22.8331
O     31.2513     11.8709     24.4555
O     35.8748     11.1929     22.5486
H     29.5522     11.6367     26.0578
O     33.2896      5.4671     23.7296
C     31.1468      6.5177     22.8189
C     31.2535     10.5237     24.4857
O     28.8360      6.1079     27.0966
C     32.4436      5.6523     24.6456
O     27.1792     10.1619     26.2405
C     31.6624      8.1289     23.4390
C     32.5597     10.4500     23.5122
C     34.1497      9.1782     22.7731
H     31.3697      5.6108     26.3327
C     31.4932      6.7740     24.2167
C     30.2315      7.0739     25.0091
C     30.4188      9.6302     25.2580
C     33.7416     11.6349     23.4999
C     29.5205      6.6365     26.1657
O     34.3336      7.9724     22.4921
C     29.8372     10.4963     26.2286
C     28.4583     10.2542     26.1488
C     32.7052      9.1524     23.2302
O     31.2899      5.6223     21.9946
O     32.3636      5.7179     26.0531
O     33.6934     12.4465     24.4051
C     30.5124      8.3633     24.4282
