34

H     14.7514     61.5511     22.9880
H     16.2878     60.7547     27.1647
C     14.9551     59.3671     29.7249
C     15.5870     60.7975     24.8469
C     17.5773     61.1615     31.0431
O     16.4048     60.8037     23.9049
H      9.8442     61.6420     26.7083
O     18.6009     60.4950     31.1925
C     15.0524     59.0718     28.3575
H     16.2182     57.6677     27.7296
C     13.1467     60.4316     24.0930
C     11.9861     61.5908     27.3352
O     14.2224     62.5579     31.3858
O     13.7217     59.1050     24.3675
H     13.5870     58.3971     23.7877
C     15.2654     60.6919     30.2694
O     12.1537     60.4707     30.0016
O     15.4304     58.0138     27.4900
O     10.7652     62.1087     26.4470
H     15.0458     63.4199     31.5211
C     12.8930     60.3608     28.8654
C     16.3121     60.7980     31.2963
C     15.1104     61.3658     31.5957
O     13.4776     62.8298     25.6918
C     14.4100     61.2240     24.0208
C     14.1225     60.1910     28.0131
C     14.2984     60.9149     26.9848
C     13.1997     61.8507     26.7197
N     15.6847     60.5580     26.2395
O     12.0221     60.5288     23.6583
H     14.2768     58.8190     30.3398
C     14.5913     62.6430     24.8334
C     11.7307     61.1222     28.6543
O     15.2665     63.4740     24.1269
