39

C      9.4995     60.3418     30.7104
H     14.3091     61.7911     23.1283
H     15.7477     61.1335     27.1068
C     14.4299     59.5677     30.0782
O      7.3957     59.1952     30.5768
C     15.2219     61.1175     25.1323
C     17.6994     61.1599     30.9241
O     16.2691     60.6230     24.5354
H      9.6544     61.3140     26.0039
O      9.7750     61.4876     28.4865
O     18.8940     61.2616     31.3489
C     14.6491     59.2862     28.5978
H     14.9958     57.5537     28.5756
C     12.8444     60.6792     24.1488
C     11.5971     61.4898     27.2108
O     13.0642     59.3705     24.5230
H     11.9584     59.0401     24.4924
C     15.1041     60.8263     30.4434
O     12.1502     60.3022     30.5012
O     15.2918     58.2644     27.8776
O     10.5616     61.5135     26.1134
C     12.2706     60.5326     29.1906
C     16.4421     61.2560     30.8363
C     14.9859     61.1400     31.8348
O     12.6860     62.6381     25.6468
C      7.9071     59.9843     29.7612
C     14.1796     61.6843     24.2429
C      8.9928     60.7005     29.4956
C     13.5210     60.3069     28.3419
O     10.4719     60.3695     31.4071
O     14.5180     60.0791     32.6653
C     13.7770     60.6543     27.0550
C     12.7662     61.4223     26.4489
N     15.0789     60.5702     26.5153
O     11.9579     61.2767     23.4944
H     13.8071     58.7966     30.8257
C     13.9926     63.0601     24.8698
C     11.2047     61.3196     28.4346
O     14.8192     63.9512     25.1529
39

C      9.4018     59.8218     30.7784
H     14.3001     61.6411     22.8264
H     15.1056     59.6052     26.8097
C     14.5598     59.4875     30.1620
O      7.0748     59.3027     30.3419
C     14.9889     60.9847     24.7649
C     17.8137     61.2380     30.6942
O     15.9923     60.7955     23.9936
H      9.1335     61.8790     26.7935
O      9.5665     61.1164     28.7432
O     18.9017     61.0588     30.0255
C     13.9206     59.4468     28.7923
C     12.8251     60.3844     24.1400
C     11.1750     61.5969     27.0107
O     14.7731     62.1593     32.8866
O     12.9279     59.3443     25.2449
H     12.6552     58.3699     24.8937
C     15.1868     60.6918     30.6080
O     12.1614     60.9189     30.1962
O      9.9969     61.7283     26.3180
H     14.4030     62.6917     32.2678
C     12.1649     60.7470     28.9010
C     16.5195     60.8707     30.9474
C     15.3305     60.9655     32.1408
O     12.2671     62.4672     25.2741
C      8.3079     59.2116     30.0201
C     13.8810     61.4310     23.8489
C      9.2533     59.9806     29.4370
C     13.1461     60.2865     28.0163
O      9.7469     60.4766     31.8795
O     15.0928     59.7072     32.8096
C     13.6208     61.1243     27.0107
C     12.5147     61.7476     26.4867
N     14.7213     60.6187     26.2854
O     11.8348     61.0103     23.6457
H     14.7875     58.5771     30.5477
C     13.5196     62.7358     24.6797
C     11.0754     61.2840     28.3576
O     14.3018     63.7440     24.9092
