7

C     20.7464     53.1627     27.9592
O     21.6653     53.1658     26.7500
H     21.2378     53.6258     26.0984
O     19.4807     55.5166     28.5557
C     19.8045     54.3491     28.0875
N     19.6223     51.0929     28.5247
C     20.1287     51.9818     28.2679
7

C     21.0105     53.2999     28.3149
O     21.7202     52.8996     26.9620
H     21.5353     52.1068     26.5115
O     19.8141     55.5681     28.2641
C     20.2100     54.5489     28.0154
N     19.4004     51.6189     29.1530
C     20.1713     52.3804     28.7748
7

C     20.4118     53.8055     28.1710
O     21.4592     53.3842     27.1423
H     21.4577     52.1830     27.2111
O     20.5213     56.1820     28.5956
C     20.7481     54.9943     28.3072
N     18.7757     52.5094     29.6576
C     19.5403     53.0227     29.0368
7

C     20.3589     54.6587     28.1920
O     21.1879     53.6857     27.2488
H     20.4133     52.9601     27.0729
O     21.6689     56.3541     29.3545
C     20.7100     55.9501     28.7070
N     18.7346     53.7226     29.8554
C     19.4347     54.1327     29.0680
7

C     20.6452     55.0398     29.0147
O     21.0340     54.2896     27.7375
H     20.2348     54.8425     26.9764
O     22.0758     56.7387     30.1886
C     21.3848     55.8538     29.5833
N     18.2415     54.6559     29.7804
C     19.2722     54.7462     29.4099
7

C     20.5507     55.3273      0.4655
O     20.6531     55.1495     -1.0167
H     21.3422     55.5236     -1.4610
O     22.4557     56.3283      1.6873
C     21.7115     55.3867      1.1763
N     18.1197     55.1057      0.4026
C     19.1702     55.1585      0.5767
7

C     20.3263     55.7381      0.8757
O     20.9057     55.4838     -0.5819
H     21.7691     55.9252     -0.4292
O     22.2108     54.7653      1.7608
C     21.2759     55.6072      1.8425
N     17.9280     55.6801      0.4694
C     18.9804     55.5138      0.4589
7

C     20.5235     55.7604      0.2849
O     20.7877     55.5614     -1.1414
H     20.6519     54.6375     -1.3291
O     21.6936     54.5838      2.1671
C     20.9806     55.1916      1.3552
N     18.0673     56.2168      0.6123
C     19.1338     55.9027      0.5389
7

C     20.7273     55.4605      0.0637
O     21.0686     55.1550     -1.4759
H     20.6930     55.8686     -1.9189
O     21.0397     55.4154      2.3275
C     21.1344     54.8445      1.1223
N     18.1334     55.8687      0.1586
C     19.2429     55.7246      0.1550
7

C     20.6888     55.1368      0.1048
O     21.7942     55.0896     -0.9192
H     21.5533     54.0983     -1.1781
O     21.1009     55.6969      2.5815
C     20.9275     55.2707      1.4557
N     18.4028     55.9128      0.0264
C     19.4233     55.4357     -0.0248
7

C     21.1741     55.3396      0.2608
O     21.4460     54.8618     -1.0317
H     20.9624     55.4659     -1.5656
O     22.0927     55.4758      2.6261
C     21.5503     55.6624      1.5747
N     18.6506     55.4079     -0.3006
C     19.7009     55.5147     -0.0153
7

C     21.0212     54.9474      0.5754
O     21.6282     54.5519     -1.0697
H     21.0420     53.7102     -1.3359
O     21.6003     54.7781      2.7809
C     21.6319     54.5356      1.5384
N     18.8322     55.3767     -0.3612
C     19.8109     55.2545      0.1282
7

C     21.1259     54.1811      0.6173
O     21.6335     54.0397     -0.9746
H     20.9295     54.5372     -1.2281
O     21.6610     54.0322      3.0790
C     21.1068     54.0747      1.9139
N     19.1539     55.6792     -0.0727
C     20.0305     55.0566      0.1738
7

C     20.9038     54.2890      0.4975
O     21.5796     53.4212     -0.5034
H     22.3119     53.9092     -0.8734
O     21.2640     53.6759      2.8949
C     21.2588     54.3735      1.8417
N     19.2283     55.8593     -0.3612
C     20.0058     55.1437      0.0320
7

C     20.9827     54.2512      0.2874
O     21.9304     53.1958     -0.3713
H     22.6022     53.5501     -0.7950
O     20.7801     53.5693      2.7408
C     20.8314     53.8105      1.5516
N     19.1205     55.7535     -0.6338
C     19.9330     55.1522     -0.1567
7

C     20.7254     53.9439      0.1314
O     22.0042     53.6605     -0.5964
H     22.2082     54.7458     -0.4604
O     20.9564     54.1552      2.6929
C     20.8398     53.9656      1.4843
N     19.0075     55.7127     -0.2621
C     19.7958     54.8784     -0.2557
7

C     20.8519     54.1770      0.4465
O     22.0480     53.8138     -0.7308
H     22.1670     52.8526     -0.4917
O     20.8001     53.9121      2.9623
C     20.7983     53.9727      1.6565
N     18.9712     55.8628      0.0199
C     19.7989     55.1726      0.2239
