6

H     11.9994     18.8610      4.2757
O     12.1928     14.2691      6.5728
C     12.0758     16.0528      5.0125
C     11.6156     15.3108      6.0601
C     12.2463     16.8461      4.0741
O     12.5221     18.1130      3.5177
6

H     12.8216     18.9469      4.1480
O     11.5423     14.8765      6.5044
C     11.7356     16.2882      4.5968
C     11.1811     15.4072      5.4589
C     12.4465     17.0696      4.0586
O     13.1561     18.1989      3.7430
6

H     13.4522     18.7783      3.5922
O     10.7715     15.2385      6.6491
C     12.2781     16.4131      4.9079
C     11.5297     15.4825      5.6831
C     12.3927     17.2683      4.0604
O     12.9797     18.5986      4.3807
6

H     12.5809     17.9589      2.4295
O     11.3022     15.7685      7.0902
C     12.4358     16.2270      5.0203
C     11.1647     16.0461      5.9055
C     12.9541     17.0981      4.4264
O     13.2284     18.0036      3.2189
