10

C      5.8052     12.2474     20.6512
O      5.1954     15.1501     17.7994
H      5.2410     11.6429     21.1151
C      6.7394     13.3237     17.2658
O      6.1289     13.3967     21.1624
O      5.7443     12.4846     18.4447
O      7.9161     13.0002     17.1229
O      7.6508     11.3546     19.5609
C      5.8446     14.4803     17.2753
C      6.5141     11.7518     19.4493
