67

C     33.2779      9.4624     18.6715
C     29.2234      7.2571      7.8774
C     28.8877      6.6324     12.5462
C     35.1434      1.6732      2.6962
C     30.1996      5.0710      8.6188
C     32.6774      3.7950      6.4760
C     30.2996      2.5536      8.9246
C     30.4786      8.7574     12.5452
C     28.2169      5.3384     12.7231
C     29.6256      6.2181     10.2510
O     27.3233      3.9517     10.6321
C     32.8767      8.6035     15.7837
C     27.9375      4.3032     11.8247
O     36.2175      1.6181      3.3750
O     29.3163      7.8448     15.7759
O     34.8966     10.5099     17.0863
O     29.7922     -0.8355     11.4698
C     28.4233      7.1340      6.9022
C     29.4193      4.8528      9.7855
C     30.4235      8.6356     15.1155
C     30.4966      8.2059     10.9473
C     30.0680      0.3696     10.6817
C     30.4448      3.7772      8.0326
C     31.0707      1.3222      8.5874
C     33.3060      2.1463      4.4046
C     29.6802      2.6379     10.1378
C     30.9827      0.1016      9.5355
C     29.9243      6.5193      8.9085
C     29.3591      7.3184     13.7339
O     32.3488      1.3759      6.3874
C     34.6755      8.8875     16.9078
H     34.5824      8.7667     14.6225
C     32.0190      9.9480     18.5316
C     31.5826      9.3279     15.4253
C     31.5083      1.8782      7.3524
C     30.3810      8.0735     13.7628
C     29.2828      7.2678     11.2739
C     28.8848      6.8598     14.9731
C     33.9342      8.9580     15.6296
O     26.4210      4.4377     13.7778
H     33.0614     -0.2731      8.9308
H     32.6714     -1.2705     10.0202
O     33.7661     11.9992     18.4957
O     27.7457      6.1450     15.2898
H     29.7654     -1.4278     10.6680
H     32.2443      6.9425     16.2348
H     34.9865     10.8256     17.8917
H     35.9948      8.0063     15.2929
C     33.3140     10.8153     18.8116
C     30.7588     10.4286     14.8870
O     28.2825      6.5755      5.7179
O     29.6178     10.8416     15.3178
O     29.5943      9.6755     12.8423
O     34.0244      8.4068     18.1101
C     33.0894      2.6028      5.8403
C     31.6037      3.2687      7.3727
O     33.7166      5.7154      5.8412
C     33.9986      1.8880      3.4314
N     32.1385     -0.7193      9.3127
O     35.8613      8.0071     16.2897
O     32.8347      7.2155     15.3495
O     30.7374      9.7724     18.2337
C     28.7963      3.7581     10.5223
C     33.1259      5.0369      6.6336
C     27.4819      5.0527     13.9308
O     29.4636      1.6938     11.1519
O     30.1581      9.0052      9.8986
