80

H     12.5493      9.3089     16.7833
C      9.3147     17.0529     22.0745
C      6.3791     16.8605     25.1316
C     14.5016     14.2870     13.4520
C     11.7568     14.9023     24.0683
C     10.7988     12.5590     26.7117
C     10.3252     16.0998     22.3334
C      5.1136     16.3866     24.5607
C      3.3077     15.0355     23.3191
C      7.0395     18.6358     23.0526
N      6.1862     19.1047     22.2992
O      8.1315     11.5453     21.8069
O     14.2101     11.6658     19.4727
C      8.0503     18.1379     23.8693
N     16.6779     14.2525     10.7496
O     15.7634     11.6583     16.5382
O      9.6044     11.7266     27.4601
H      8.0651     12.5531     21.7653
C     10.5952     16.0781     29.7106
C     16.0128     15.1345     11.4844
O     13.2054     14.6150     28.1571
C     10.8671     16.0496     23.7330
C      8.6154     16.5447     20.9754
C     11.5970     13.7381     23.1459
C     13.7100     13.9094     18.1801
C     14.6427     15.0186     16.1078
C     10.4946     14.9351     21.5081
C     10.8384     11.6610     19.2653
C     11.4694     11.7185     18.2162
C     14.5442     14.9241     17.5226
C     13.5419     12.6927     20.3390
O     10.6817     14.6149     29.8045
O      4.6116     15.9351     26.8953
N     16.6544     13.7847      9.6469
O      7.8761     17.2298     20.1625
C      4.4864     16.0036     23.3406
C     12.8914     13.5819     27.3218
O     13.3507     13.3386     26.0709
C     13.9717     14.7587     14.8828
C     12.4780     11.5774     17.2063
C      4.3577     15.6875     25.4639
C      9.0252     10.9489     20.8751
O     11.3708     11.1651     23.9737
O      3.4613     14.8251     24.7373
O     13.6704     12.5426     11.8430
H     14.9964     12.2927     19.1287
O      2.5496     14.5995     22.4763
C     10.8982     14.1582     28.4250
C     14.3830     13.1252     12.6839
O     16.5651     15.9393     12.5722
O      9.0056      9.5178     20.7937
C     14.7155     12.1288     16.9654
C     13.5717     12.4726     17.5436
C     10.1300     16.3112     28.3952
O     15.9413     15.2289     17.2657
N     10.0461     11.7064     20.3851
C     11.6388     13.0026     27.7847
O      9.4243     17.4096     28.1468
C     11.0517     13.0172     25.3877
C     10.5976     15.5265     26.1339
C     10.4088     15.1124     27.5310
C      7.4266     17.4343     26.2247
O     10.6427     16.8062     30.7642
O     13.0713     10.4438     16.6158
H      7.9493      9.4825     20.8974
H      4.4205     15.2494     27.5650
C     12.3889     13.4862     20.4945
C     13.3548     13.8685     19.6432
C     11.6056     13.9430     21.7479
C     11.6023     12.5410     24.0929
C     10.0453     17.1383     24.3072
C      9.5704     16.4009     25.5840
C     11.5047     14.4955     25.4412
C      8.7402     17.2347     26.4442
C      9.4297     18.0053     23.2328
C      7.6793     17.1732     24.9588
C     15.3457     15.1518     12.7871
O      9.7132     15.2565     20.4741
O      4.9384     16.5755     22.3509
H      5.7373     18.6539     21.6663
