11

H      7.9964     52.7450     20.6421
O      8.4015     56.5811     18.4533
O      6.3676     55.3787     21.0101
O      9.5270     54.2455     21.4234
C      7.9921     55.7992     19.3715
C      8.3880     54.4098     20.0242
C      7.3376     56.1379     20.6924
O      7.2651     53.2316     20.0059
O     10.4358     54.3845     17.5341
C      9.7873     54.1875     20.0434
C     10.2231     54.3410     18.7658
11

H      7.7317     52.5325     20.2176
O      8.3188     56.2733     19.1604
O      6.1227     55.3283     21.6058
O      9.6004     54.1012     21.0328
C      7.6206     55.7798     20.0637
C      8.3001     54.3418     20.5314
C      6.4599     56.1169     20.6829
O      7.2740     53.3810     20.3967
O     10.6693     54.2932     17.4816
C      9.5542     53.9981     19.4988
C     10.4352     54.3423     18.6778
