81

N     19.0604     13.5907     11.2020
H     11.4389      9.3622     18.7673
C      9.2703     17.2886     22.1994
C      6.9400     16.8497     25.2458
C     15.2148     13.9000     14.0221
C     11.3850     14.6731     23.9366
C     12.4407     12.6650     26.5681
C     10.1396     16.1443     22.1939
C      5.7586     16.0707     24.9518
C      4.3331     14.6489     24.0967
C      7.1347     19.0295     23.2419
N      5.9740     19.3450     22.7833
O      7.2836     12.1653     21.6166
O     14.8783     11.9533     20.8500
C      8.1810     18.5667     23.8900
O     15.2925     11.8753     16.6357
O     11.0655     12.3381     27.1384
H      7.3695     12.5152     22.4992
C     10.5871     19.0636     23.1218
C     10.8603     15.8594     29.8286
C     17.4499     13.9499     12.8601
O     14.0057     16.0427     26.9725
C     10.5496     15.7781     23.4422
C      8.1875     17.5155     21.5032
C     11.9611     13.5106     23.1386
C     13.2412     13.5943     18.1092
C     14.7578     14.9498     16.3512
C     10.6362     14.8958     21.5241
C     10.3528     12.0840     20.0753
C     10.9687     11.7726     19.0190
C     14.1045     14.5039     17.6652
C     13.6728     12.7390     20.3594
O     12.2575     14.7785     29.5417
O      5.3357     15.8230     27.3955
O      7.2179     17.4150     20.7658
C      5.2679     15.7080     23.6585
C     13.7184     14.8406     26.6612
N     18.5849     13.3737     12.1761
H     10.8300     11.3744     27.0260
C     15.0510     14.7470     15.1151
C     12.1169     11.1145     18.6227
C      5.3421     15.2858     26.1011
C      8.2942     12.0038     20.6715
O     11.8130     11.5521     24.7220
O      4.4673     14.2702     25.6889
O     13.2612     13.0848     12.6205
H     15.7058     12.3153     20.4910
O      3.4514     14.0075     23.4362
C     12.0023     14.5118     28.2276
C     14.1320     13.7835     13.2415
O     17.3072     15.3207     12.4941
O      7.9029     11.8372     19.3690
C     14.4354     11.8065     17.5563
C     13.1813     12.1229     18.0591
C     10.2665     15.8994     28.6534
O     14.9894     15.5479     17.8707
N      9.5968     12.3497     21.0400
C     12.9001     13.7977     27.2075
O      9.1753     16.7997     28.0711
C     12.7604     13.3360     25.2571
C     10.6080     14.9647     26.2088
C     10.9167     15.2506     27.6142
C      7.7388     17.2576     26.3885
O     10.6980     19.1216     21.9415
O     11.5939     16.3527     30.7472
O     12.3236      9.7509     18.4283
H      6.1238     16.5706     27.2855
C     12.3254     13.4113     20.4597
C     13.2394     13.7118     19.5181
C     11.7033     13.8059     21.7592
C     12.4052     12.3561     23.9300
C     10.0840     16.7443     24.4542
C      9.9085     16.2472     25.8057
C     11.5721     14.1601     25.1953
C      8.9586     16.6834     26.7337
C      9.7092     17.9059     23.5973
C      7.6850     18.2255     25.2729
C     16.2645     14.7180     13.0815
O      9.8354     14.8259     20.5065
O      5.0562     16.4879     22.6397
H      6.0954     18.9867     21.7829
