5

N     12.8693     38.2174     24.0260
O     13.9798     36.9922     24.3841
H     13.7370     39.5692     24.8214
N     12.6182     39.3268     24.0195
H     14.8035     36.7987     24.0788
5

O     22.4348     28.2154     22.4472
H     23.6482     30.2913     24.1593
N     23.4759     29.2380     22.5620
H     21.8709     28.4098     21.6832
N     23.3024     29.9697     23.2664
5

N     12.8788     37.9999     24.2523
O     14.1860     37.4811     24.2968
H     13.6750     39.7966     23.7461
N     12.6709     39.1528     24.1377
H     14.1339     36.2835     23.9172
5

O     22.8688     27.9759     22.2679
H     24.3228     29.6905     24.2823
N     23.9915     29.0857     23.0291
H     22.6568     28.2855     21.5109
N     23.2480     29.3980     23.9041
5

O     22.8054     27.7303     22.2973
H     22.8759     29.7038     24.7540
N     23.5657     28.8600     23.3220
H     21.7799     28.1235     22.1769
N     22.8096     29.0425     24.0552
5

O     22.1107     27.6653     22.8223
H     23.7369     30.1489     23.9021
N     23.1313     28.9712     22.7819
H     22.5049     27.1290     22.2461
N     22.8865     29.6110     23.6961
5

O     22.2753     27.6678     23.4196
H     23.5236     30.6832     22.7192
N     22.9928     28.8347     22.5334
H     22.2248     26.7692     22.8988
N     22.9565     29.8777     22.8705
5

O     22.6144     27.3335     22.7534
H     21.9460     29.9760     23.0520
N     23.2088     28.6024     22.0496
H     23.1690     26.6061     23.2750
N     22.8768     29.6075     22.5034
5

O     23.6043     27.4406     22.4097
H     22.1472     28.8819     23.3018
N     23.0458     28.7371     21.7957
H     24.4947     27.5147     22.1332
N     22.7168     29.4005     22.6491
5

O     23.8582     28.0206     22.5404
H     22.3495     29.5039     24.0834
N     23.4744     29.3908     22.7138
H     24.8976     27.9532     22.6151
N     22.3365     29.3501     22.9661
5

O     24.1555     28.5719     22.1392
H     21.4523     29.8771     23.4977
N     23.0641     28.9854     23.1941
H     23.9468     27.7839     21.5854
N     22.2218     29.6844     22.7366
5

O     23.6250     27.9499     22.3255
H     21.6952     30.3166     23.3946
N     22.3002     28.9157     22.6342
H     23.6283     27.4859     21.4834
N     22.6749     29.9710     22.9064
5

O     23.5211     27.7415     22.9532
H     21.8153     30.1696     23.0245
N     22.4770     28.7268     22.5004
H     23.4846     27.0065     22.3471
N     21.9871     29.1688     23.3742
5

O     23.6836     27.5987     22.7108
H     21.4928     29.7507     23.2870
N     22.3540     28.5532     22.4706
H     23.3466     26.7701     23.1599
N     22.0601     28.8342     23.4793
