   96
 8.60913085937500e+00  8.60913090000000e+00  8.60913090000000e+00
 O  2.16514478208613e+00  6.98139115512055e+00  6.66117945961345e+00     6.84689897071413e-01  3.61292253596817e-01 -1.42341054250765e-01 
 H  1.22919632561675e-01  6.09988239385896e+00  3.89730356198184e-01     4.93946060721202e+00 -2.87006727161967e+00 -1.58587150549456e+00 
 H  1.58326639834862e+00  5.10033772091867e+00  7.95463271123223e+00    -7.41464645744059e-01 -3.90498638400182e+00  4.87487827715614e-01 
 O  8.50990254221378e+00  8.39967150075332e+00  5.58661700909878e+00     1.57062160988571e-01  1.87056187853454e-01 -3.76380579518467e-01 
 H  1.39344313206381e+00  3.70719289966820e+00  7.41048901081687e+00     9.70667465285214e-01  2.83034714289432e+00  1.64078372576506e+00 
 H  7.31430347469158e+00  4.74436965339910e+00  5.74281850263186e+00    -2.77961660300508e+00 -1.08132722141528e+00  1.35127240331566e+00 
 O  1.53148340695936e+00  8.00416442364578e+00  2.85054353437933e+00     3.42059244328533e-01  8.59705398666690e-02  5.53070390128469e-02 
 H  1.52288853720853e+00  1.58464352325160e+00  7.40553180584644e+00     4.55551435587195e-01 -2.99265192099363e+00  3.27106661236686e+00 
 H  3.88272387500770e+00  6.64920850401445e+00  7.41035475763158e+00     2.82474116839051e+00  2.81718090855983e-01  1.18194092095691e+00 
 O  1.22261151364177e+00  2.21947516438881e+00  3.44122567838526e+00    -4.22219537730828e-01 -3.17622132100618e-01 -1.54132752544252e+00 
 H  4.12783165487374e+00  4.54930148370023e+00  7.32669618420102e+00    -6.83290398709721e-02 -8.17987875129142e-01  1.44958484711139e+00 
 H  4.05991250331728e+00  8.80451657956737e+00  7.16790463111575e+00     1.26381347159902e+00  2.62772051462726e+00 -5.53547775440601e-01 
 O  2.13525456299761e+00  4.39477378062313e+00  7.60729183774930e+00     1.90381695847053e-01  4.12454890664139e-01  4.44438794807925e-01 
 H  4.07949122756917e+00  3.82131312175176e+00  4.02542771382588e+00    -1.12932964944818e+00 -7.46428896553170e-01 -2.10842488936572e+00 
 H  1.38505863579623e+00  6.96330264106235e+00  1.50400083274002e+00    -3.36612461210727e+00  2.55989903931200e+00  6.44614452823928e-02 
 O  7.92078666884200e+00  1.51932245515696e+00  7.63553057788746e+00    -3.40506770908116e-01  2.83465840945738e-01 -1.11014757034185e-01 
 H -3.26789823759089e-01  3.94512912962783e+00  8.47840080964626e-01    -1.53354284796258e+00  6.22228111672966e-01  4.35958207607851e-01 
 H  5.36481343688387e+00  3.71318315230714e+00  5.10857333401911e+00    -8.61405493582623e-01  3.52514725357506e+00 -1.37018967450897e+00 
 O  4.98392085223924e-01  5.01943230490205e+00  3.50785049321863e+00    -6.85682916083228e-01 -6.37436055555412e-01 -7.03453477296069e-02 
 H  4.97911697444480e+00  8.73075743240942e-01  6.34533565427543e+00    -5.86670409771455e-01  3.78572010204624e+00 -1.91912130897973e+00 
 H  3.11397249116467e+00  6.72731092357277e+00  2.26363770283939e+00     1.27176892999003e-01 -5.47613307712908e+00 -1.51675800186252e+00 
 O  3.53509942205559e+00  5.89955522337218e+00  1.92846024076314e+00     4.83208855023400e-01 -7.12108094920430e-01 -8.19838217847405e-01 
 H  1.82112622704121e-01  3.00021514624390e+00  6.67190893844238e+00    -1.22377181816463e+00 -5.24895329808984e-01 -1.30175653984749e+00 
 H  6.22790944075477e+00  6.15399106958946e+00  4.21475116041381e+00    -2.31079684596369e+00 -6.52965410947957e-01  1.04943300229209e-01 
 O  5.93062039163226e+00  2.19611723056543e+00  1.25346347994059e+00    -1.78111560039054e-01 -1.40141974065987e-01 -5.25335962589240e-01 
 H  5.43013320124927e+00  4.05418571486126e+00  3.04815592311359e+00    -2.88367103508677e+00  4.46541295213602e-01 -1.18944349372582e+00 
 H  1.48292289119549e+00  8.86493357326018e+00  3.36267525317780e+00    -2.07579735380458e+00 -1.08587716811615e+00 -2.21256398556171e+00 
 O  3.25863551575488e+00  2.58430684457394e+00  5.03949171586313e+00    -5.35814155370621e-01 -8.33295884415186e-01 -7.98690834741377e-01 
 H  7.47453886757657e+00  7.59395182570004e+00  8.78025785140860e+00    -3.03537578721446e+00 -1.08336579209358e+00  8.59815832405694e-01 
 H  7.77416404500940e+00  6.10250408387929e+00  6.34286571741075e+00    -6.26544144110028e-01  3.88714223393708e+00  2.11398775741606e-01 
 O  3.38033146030356e+00  2.19140537302540e+00  2.16130238686903e+00     4.28554034530191e-01 -1.71809458093728e-01 -2.54643533751315e-01 
 H  9.07831422607416e+00  3.39130980469992e+00  5.23626115188236e+00     2.25549934109179e+00  3.45595241370930e+00  1.56432716109672e+00 
 H  6.92080218660985e+00  4.02649706958510e+00  3.71089275010756e-01    -1.10583397556023e+00  1.36891065531055e-02 -6.26175636269341e-01 
 O  8.81169796995116e+00  1.16990091978831e+00  1.14449005315492e+00     5.15107116306816e-01 -2.12890399232415e-02  3.55333428493677e-01 
 H  8.34769452933424e+00  9.31886855439569e+00  5.42634428675218e+00     1.02643727002333e+00  3.78889343595254e-01 -4.57685769518333e-01 
 H  5.13244088622487e+00  7.61106033549857e+00  7.16255913415345e+00     3.04547511888524e+00  1.39715847475834e+00 -2.01614981876837e+00 
 O  7.20685703961821e+00  8.16114778711612e+00  2.48543007084827e+00    -7.87504779281012e-02 -4.88157622744410e-01 -1.55606331948943e-01 
 H  2.38127165603704e+00  4.12327946761104e+00  9.48163907974358e-01     3.37825480303233e-01 -3.51342836169280e-01  3.29174921022051e+00 
 H  8.51586789096832e+00  3.90076861278244e-02  6.55198812961001e+00     7.33599155738306e-01  5.07155641339628e-01  5.23402417122466e+00 
 O  5.71757194051371e+00  3.17357527883286e+00  5.89124139818586e+00     2.31841588680533e-02  1.90959897608342e-01  4.01707521345693e-01 
 H  5.32974058278993e+00  3.97318061717808e+00  7.39441916362818e+00    -8.75468570953790e-01  1.67491730858737e+00 -1.45723779927505e-01 
 H  6.80156630400793e+00  1.55852572875856e+00  7.62768712394889e+00    -7.04836082245188e-01 -1.87285624747228e-01  3.83991853209486e+00 
 O  1.82637554059095e+00  2.27087959847503e+00  6.87813221332073e+00    -2.81671200682993e-01  7.61103409318314e-02 -4.22081943443115e-01 
 H  2.79161338603777e+00  2.52438089561330e+00  6.19111102853943e+00    -5.84643811017312e-02 -2.76616786160804e+00  1.76292654039194e+00 
 H  4.75053622286951e+00  8.00206017144838e-01  4.44827801077608e+00    -9.77658924971380e-01  7.01088943960625e-01 -1.67176865002758e+00 
 O  7.13751040852014e+00  6.91697641972259e+00  8.13672891088292e+00    -3.38437048321564e-01  1.11458422893261e+00 -1.71761403274494e-01 
 H  4.36714881931131e+00  5.88730990149764e+00  2.24417142417989e+00     1.45882011628027e+00 -5.39795318912728e-01 -2.35268205346655e+00 
 H  8.29197634720709e+00  1.91850254315946e+00 -2.23626572165035e-01     1.20875429785082e-01 -2.55242774276933e+00  1.14340023958869e+00 
 O  8.47754212287072e-01  6.90675322955654e+00  5.72763337631331e-01    -5.92979610359331e-02  3.70032635750649e-01  3.65684763483842e-02 
 H  4.86689848756766e+00  2.99168121041646e+00  6.09423941441743e+00    -2.18189623599082e+00  5.92480651682992e-01  1.42861412383335e+00 
 H  6.87953827668824e+00  2.34199518910374e+00  1.03311811770979e+00     1.72189457145072e-01 -4.02066858728317e+00  1.96862050946325e+00 
 O  5.84880152401014e+00  3.98306002490710e-01  6.45847977282072e+00     6.53971156368290e-01 -4.60342842366173e-01 -3.49082974478941e-01 
 H  4.34068147262154e+00 -7.89629328541542e-01  8.82719528207883e-01     7.59080725717256e-01 -1.26415544913749e+00  2.31585742312278e-01 
 H  2.50392702581992e+00  2.60993219036644e+00  2.23606155049884e+00    -8.42831739014904e-01  5.35053340170780e+00  2.61971531045974e-01 
 O  3.04085953210699e+00  6.56434976874288e+00  4.31074588888851e+00    -3.01256189319449e-01  1.84304189102994e-03  1.33619103807167e+00 
 H  1.24436279256687e+00  4.41473900523525e+00  2.06512935656924e+00    -7.69285825470053e-01  9.95590157100843e-01  2.15195050757466e+00 
 H  3.07337322325004e+00  1.60140878647935e+00  5.23586946887041e+00    -1.71781404270127e+00 -3.21813267407454e+00 -2.87525577882485e+00 
 O  4.83299665010808e+00  4.46218967081833e+00  3.86495220503912e+00    -1.10825300468584e-01 -1.32502126041439e-01  3.71476895526405e-01 
 H  5.29979595138606e+00  5.14259778141638e+00  8.30867875119996e+00     3.44195670114502e-01  2.36266560645120e+00 -9.48847734201261e-03 
 H  6.59289681424392e+00  2.46379101826803e+00  2.84742856179247e+00    -2.36516473075047e+00  4.12519402407553e+00 -1.35063035155979e+00 
 O  5.03079061875006e+00  8.12528202721652e+00  1.36410547143405e+00    -4.81961041014657e-01  2.43203118029561e-02  4.59097351541286e-01 
 H  1.45670160922823e+00  7.36426047917315e+00  7.29112556311644e+00    -4.28375620589111e+00 -2.79818525078374e+00  8.47930354923468e-01 
 H  3.66088651045560e+00  6.43835537358633e+00  5.22803077621421e+00    -2.73278065727695e+00  5.93814302441372e-01  1.04671395814717e+00 
 O  4.81412982139983e+00  6.63197403597969e+00  7.17322892635244e+00    -4.13673388882528e-01  1.53282109921755e-01  9.53210159961416e-01 
 H  2.44192905556602e+00 -8.18597058460892e-01  2.51990286448701e+00    -3.95620229809609e+00  1.67087332732035e+00  2.79040894400213e+00 
 H  5.64141887707190e+00  8.80631016777384e+00  7.65667640119951e-01     1.28428754718449e+00  2.60058969028536e-01  2.89723758534481e+00 
 O  3.65696477797619e+00  9.11975640955716e+00  6.33495621090230e+00     5.78552623170150e-01  1.05307833698037e+00 -1.23430169322456e-02 
 H  6.54570193529641e-01  1.72817194380372e+00  1.77793866953042e+00    -1.81537424186740e+00  2.13837211662729e+00 -9.18975991662130e-01 
 H  7.55588033367711e+00  6.16351489200881e+00  6.17492064719850e-02     2.96562208207653e+00 -2.87871974090805e+00  3.49712213041060e+00 
 O  7.72386285484260e+00  4.68083873186917e+00  5.02884043215974e-01    -1.25319588676940e-01 -1.94167733031317e-01  3.37196638891298e-01 
 H  1.83460675886797e+00  2.16578884432712e+00  4.39441283971950e+00    -1.97783768856424e+00 -2.80071591877343e+00 -1.43304010706929e+00 
 H  6.94535638997699e+00  8.61438796368466e+00  3.27853841122170e+00     4.54492799344199e-01  8.86302821109388e-01 -4.20227009174925e-01 
 O  7.01894798139406e+00  5.84110609546054e+00  5.63161254799611e+00     6.02846263966668e-01  2.82604011495405e-01  4.81724341976654e-01 
 H  3.01405070989640e+00  8.25388869332792e+00  6.15120394757850e+00    -6.26453981832278e-01  1.51050757093796e+00 -3.77768676982088e-01 
 H -3.92008966552511e-01  4.57697117204469e+00  3.58210311315891e+00     3.72229930725278e-01 -2.62430590513366e+00 -5.36014678102896e-01 
 O  4.86726923840889e+00  4.27049604542892e+00  8.20254075054631e+00     3.48690361879740e-01 -1.39266531799720e-01 -8.76699501904847e-03 
 H  6.84488701359401e+00  2.93812947583865e-01  6.35282630636973e+00    -1.56523015364566e+00 -8.21764195954829e-01 -2.24022289154183e+00 
 H  7.13162192936559e+00  1.87368547186247e+00  3.83115034057093e+00     2.20824355056500e+00 -1.18281041939776e+00 -6.01699035094177e-01 
 O  5.47525516205139e+00  1.06397516185095e+00  3.80152528912263e+00    -2.98951800712713e-01  5.07499379814350e-01 -1.15831064054988e-01 
 H  3.81119378439437e-01  5.89035178675754e+00  3.07607920213814e+00    -2.70661728613873e-01 -5.32159306748783e-01 -1.33876071606881e+00 
 H  4.89965525264910e-01  2.66841048470976e+00  3.95894213123645e+00     4.34370785914064e+00 -8.41826123636831e-01  1.30076231224086e+00 
 O  2.75202650317922e+00  5.20024586974303e-01  3.61999909116509e-01     2.52578645117725e-02 -5.89803861933324e-01 -3.02398222656267e-01 
 H  2.97861994057263e+00  1.41263520097117e+00  2.20776078229992e+00    -8.27497922268586e-01  1.28311733417550e+00  8.72265824373161e-01 
 H  5.40632169777678e+00  2.91535553309074e+00  1.50939669122043e+00    -4.05801377599864e-01 -4.19474502880083e+00  3.72423578866972e+00 
 O  5.74971687538202e+00  6.37374952777503e+00  3.36615257407607e+00     7.29082445749320e-01  6.55151156038790e-01 -4.40330295349898e-01 
 H  8.02078679551598e+00 -8.60054497797294e-01  2.57603863328231e+00     8.54315504209729e-01 -8.84557048842008e-01 -5.81508025142666e-01 
 H  1.57193121521495e+00  6.60266893028905e+00  6.01405972946401e+00    -2.37973174348839e+00 -2.11707002608411e+00 -7.55113111319549e-01 
 O  1.52491706953289e+00  3.81810398513831e+00  1.36530360615738e+00     4.23283036913851e-01  3.33947379158536e-01  1.44143899922622e-01 
 H  2.96543101666108e+00  1.27097167971097e+00  8.51300774671279e+00    -2.51530433700939e+00 -3.68985953466858e+00  4.08445544263973e+00 
 H  5.35221320127102e+00  2.98889086495097e-02  3.51040962311472e+00     1.73603262691003e+00  5.76972973295185e-01 -2.20475328705179e+00 
 O  8.35530012201995e+00  3.47413498136807e+00  5.99879512157764e+00     2.96880318260780e-01 -6.66960169273142e-01  2.28947036278808e-01 
 H  2.10663801066443e+00  4.78176824388666e-02 -2.64826375538026e-02    -1.48797493402182e+00  1.98806598677572e+00  9.03714609560351e-01 
 H  2.60205681135675e+00  5.73492144392350e+00  4.15031568024143e+00    -7.27302442658580e-01  2.53476727972553e+00  1.39343141232436e+00 
 O  7.25685105812364e+00  2.82359853082329e+00  3.50613151807511e+00    -3.57115764937940e-01 -3.21684867973692e-01 -2.49211791609289e-01 
 H  3.91577730271120e+00  5.99560539932911e+00  3.92017822226044e+00     3.69035146226728e+00 -1.43682285630221e+00 -3.46440857260207e-01 
 H  6.49439992101958e+00  6.63927372539604e+00  2.72459526869790e+00    -1.73692016122153e+00  3.13619717684385e+00 -2.45507383690085e-01 
