   96
 8.60913085937500e+00  8.60913090000000e+00  8.60913090000000e+00
 O  2.41065108785012e+00  8.23214144443318e+00  7.08948325793521e+00     1.56330757367073e-01  1.52558317330964e-01 -4.43858007801561e-01 
 H  5.64158544694096e-02  6.90513847743353e+00 -6.33595168481857e-01     6.09549846052771e-01 -2.38573434596914e+00 -1.77675064632465e+00 
 H  1.26571792968415e+00  5.23104941472963e+00  6.51510265151433e+00    -1.73278993729582e+00 -3.18410589245837e+00 -2.71705517887531e+00 
 O  9.52775425490889e+00  8.61447380687481e+00  4.93513648604382e+00    -1.15745745964192e-01 -3.99185422709563e-01 -6.15969794739209e-01 
 H  2.77604083122009e+00  4.93769613387860e+00  7.52830993888189e+00     3.45713177808812e-01 -9.58107690175942e-01  1.27674975424310e+00 
 H  7.66710815522358e+00  3.16475840970665e+00  4.58528084743210e+00    -2.40638965418432e+00  7.53156367344390e-01  2.14472688565181e+00 
 O  1.84866158022539e+00  7.75412461936528e+00  3.04986749216177e+00     7.98866586954160e-01 -7.47878781570764e-01  1.92236680495465e-02 
 H  3.05518341273493e+00  5.44183093033504e-01  6.78128329401863e+00     4.10077541885749e-01 -2.61623007818445e+00  3.66400918871301e+00 
 H  5.16245601131198e+00  7.28911430717406e+00  6.83629637324866e+00     3.68346891394396e+00 -4.19747124478609e-01 -1.37462827278084e+00 
 O  2.57409604694537e-01  2.46647335404652e+00  3.07527136346585e+00    -4.12225068599321e-01  1.49339841291682e-01  1.82311374322816e-01 
 H  4.86340551403551e+00  4.34564461827579e+00  8.47793098688389e+00    -6.80054699416988e-01 -6.93046558242401e-01 -2.51798947700024e+00 
 H  4.09653074555228e+00  1.10488871419379e+01  6.85097514277073e+00    -1.33587448023142e+00  1.59967069431423e+00 -1.28421631992848e-01 
 O  2.07275217200382e+00  5.52335997332874e+00  7.08897157583842e+00    -1.17563145765738e+00  5.11886184861767e-01 -4.21672020714279e-01 
 H  5.28573053711006e+00  4.45540660038493e+00  3.42383894462728e+00     1.17395806157964e+00  9.11772802278135e-01  1.03351810794723e+00 
 H  4.92310045507159e-01  5.42195627411656e+00  6.53932852780031e-01     4.41890679745502e+00 -8.89501132907246e-01  3.17913275370223e+00 
 O  7.69872512647092e+00  2.34585565459922e+00  7.51729468313304e+00    -1.68871846747503e-01 -1.29075554527893e-01 -5.25632042369894e-01 
 H  1.87478311259233e+00  4.81182720371515e+00  2.26624963004057e+00     1.12492537892863e+00 -2.91846752729329e+00 -2.47581152165709e+00 
 H  3.79452341357484e+00  3.10752877162967e+00  5.02889623500468e+00    -2.07922924961091e+00  8.79005202304128e-01 -1.80632743741501e+00 
 O  8.80922973829938e-02  5.26193166799498e+00  3.43479166234834e+00     4.90009310779504e-01  1.02487347037793e-01 -3.56263369466489e-01 
 H  6.41863675146086e+00  3.79458090178049e-01  4.65117417207840e+00    -3.16511384136246e-01 -1.53280307168403e-01  9.01030320916953e-01 
 H  2.61519921534014e+00  5.51903402716971e+00  7.89856398947365e-01     5.99065872636059e-01  1.18373775903828e+00  6.86621758738086e-01 
 O  3.67673696567827e+00  5.64728868504010e+00  6.09970901044986e-01     6.12881741192741e-01  2.59088531585125e-01 -5.85541281195900e-02 
 H -8.33603792077593e-01  3.33874887863697e+00  6.93790686191218e+00    -1.18689360742621e+00  2.47273431611361e+00  1.20364820627862e+00 
 H  6.86876227139680e+00  6.12178865678063e+00  5.12358506056523e+00     1.55579232996068e+00  9.88482277287433e-01  3.96742526889496e+00 
 O  5.62418346039397e+00  1.10843902043083e+00  7.62590432956657e-01    -8.17508988872483e-01  7.26580525921175e-02  4.85072850900176e-01 
 H  4.88066134734412e+00  5.06352140602039e+00  2.17071200232461e+00    -1.31119773777239e+00 -3.59648947188695e-01  1.09831599693223e+00 
 H  2.57136091931985e+00  7.90329530529090e+00  3.88790048348345e+00     2.39140859381519e+00  1.41148579009874e+00 -1.13893010498508e+00 
 O  2.62255483895259e+00  2.13958221252114e+00  4.56017357514570e+00    -2.41669936647775e-01  2.49634521903419e-01  1.12498859691432e-01 
 H  7.57974290629816e+00  7.24345022905545e+00  9.03883411663073e+00     1.77609533287115e+00 -1.89122825013914e+00  3.44288835113126e-01 
 H  7.27491714482726e+00  6.17375050522902e+00  7.16943654976509e+00     3.13839328919569e+00 -1.04477875140935e+00  5.63633712345137e-01 
 O  3.39871656199889e+00  2.72016375370325e+00  1.30776467588428e+00    -1.21576619103036e-01  9.95538199879211e-02 -3.88403255432854e-01 
 H  7.49631809970616e+00  4.66762306361885e+00  5.71883229505801e+00     1.85826510192476e+00 -4.36863034816087e-01 -2.15846198729159e-01 
 H  7.57423044727949e+00  4.48149566601780e+00  2.01464899909196e+00    -1.01292604439740e+00 -1.04431472856375e+00 -1.53556997844506e+00 
 O  8.81913943958066e+00  7.98185091589195e-01  8.25832353112136e-01    -1.76551601742944e-01 -2.45469475132699e-01 -3.67377269862662e-01 
 H  8.81594824982224e+00  9.04491074554623e+00  5.52692755888150e+00     1.50009152895184e+00 -1.84853939721033e+00  3.68932603392468e+00 
 H  5.72630546845287e+00  7.13715955827486e+00  8.31590337079012e+00     2.46430394914130e-01 -3.04473217587146e+00 -1.68220781314161e-01 
 O  8.03955877925016e+00  7.35232285185663e+00  3.00821504501224e+00    -1.52188002073279e-02 -2.72208801310992e-01  3.13585750321857e-01 
 H  2.56126556585484e+00  3.39130444614354e+00  1.24796667036941e+00     1.05527837861197e-01  1.17907771488630e+00  9.33132043275014e-01 
 H  9.98888711921696e+00 -3.52676466781172e-01  4.17764094302033e+00     4.48305706518698e-01  3.31483363914478e+00 -1.70863053680150e+00 
 O  4.10182786223303e+00  3.29852883081907e+00  6.28139268862395e+00    -8.39390830834694e-02  1.65064439192523e-01  1.09307544885864e-01 
 H  5.01571055679571e+00  4.03476765921152e+00  6.66451715835506e+00     1.08839107014226e+00  4.47593705703109e-01 -3.23141544453255e+00 
 H  6.87102647351750e+00  1.62888676809181e+00  7.53217217478178e+00    -2.34547287970855e+00 -7.61037171967686e-01 -1.97503273827499e+00 
 O  1.84117744809829e+00  2.21146990572187e+00  7.24726717573113e+00     2.58920274907444e-01  6.61050627583618e-01  7.88365657228891e-01 
 H  1.66715125676971e+00  2.63098582493332e+00  6.32839060285559e+00    -9.58719197951413e-01  2.57814653187796e+00  5.13086548662869e-01 
 H  5.71266054741471e+00  1.43727950987399e+00  3.16255140405420e+00     2.12516715805675e-01  1.03336704345054e+00 -1.49278084166357e+00 
 O  6.69875196585407e+00  7.70902869785078e+00  8.99699525101036e+00     3.25334513966010e-01 -9.69593337671528e-01  9.43250632398346e-02 
 H  4.32307106233258e+00  5.91976691388424e+00 -2.25634895021434e-01    -2.59291178805250e+00  7.49456548135399e-01 -1.24742814866337e+00 
 H  8.61150597950367e+00  1.64034416011708e+00  2.19069778635139e-01    -2.61768290646717e+00 -4.52127013271131e-01  2.44307593743101e+00 
 O  3.51527166227661e-01  6.42054889234704e+00  1.68251061393576e-01    -8.71015153380587e-01  6.00147867248652e-02 -4.24356702959919e-01 
 H  1.72124545105136e+00  2.55304039353677e+00  4.49700196535782e+00     2.10736800487027e-01 -3.21923690387334e+00 -1.56517753968769e+00 
 H  4.73402046416269e+00  5.86274814053259e-01  9.06921865643553e-01    -7.73688769934259e-02  5.86082427078192e-01  4.25140463961046e+00 
 O  6.87532720018589e+00  1.08147083962172e-01  5.38578180862194e+00     3.58258707551927e-01 -3.90879518145508e-01 -1.14104971543439e-01 
 H  4.71824762736454e+00 -1.91277791972212e-01  3.04557880656170e+00     6.57087626936124e-02  1.88595699618015e+00 -1.15769994389712e+00 
 H  3.32420056921507e+00  1.48232129455200e+00  1.13272493667748e+00    -5.25104656766691e-01  1.70559318658534e+00  2.54190909205582e+00 
 O  3.18817849523257e+00  5.45416057711214e+00  5.06126525839938e+00     2.09235508955234e-01  3.37206649327990e-02 -7.32794669575982e-01 
 H -9.85264090418065e-02  3.32072610648044e+00  3.32926180329568e+00    -2.39193254358321e+00 -2.86520283837510e+00 -2.80514461339663e+00 
 H  2.77526711850425e+00  1.12999589425604e+00  4.65121014478135e+00     1.76258479756346e+00  1.27514737668365e+00 -1.72601644673642e-01 
 O  4.47956349714818e+00  4.41642185849489e+00  2.84161046770120e+00     4.04936832233043e-01  6.84552732102078e-02 -5.42691883987889e-01 
 H  5.94482725596081e+00  3.99945214269148e+00  9.47865149123367e+00     1.38333828426294e+00  2.15365707902162e+00 -2.13652014148830e+00 
 H  7.33866658287622e+00  2.08991833860400e+00  2.71693346388547e+00    -6.09111191400468e-01  3.44674734484469e-01  7.10539376599217e-01 
 O  4.42672246632915e+00  7.51018931543218e+00  2.83792654357162e+00     4.90100586771890e-01 -7.05881729981548e-01  5.36117145884782e-01 
 H  2.59215380269596e+00  8.67337820848902e+00  1.01636939761052e+01     2.34825424731209e+00  1.53231508741045e+00  1.63379533014235e+00 
 H  3.54540710785269e+00  4.46721993580445e+00  4.83257486955176e+00     1.03250270969066e+00  2.32381195462189e+00  1.59356454973175e-01 
 O  4.98893617217217e+00  6.94622732609341e+00  7.69545449506283e+00     3.46012797539706e-01  5.69207966571906e-02 -2.07993502268642e-01 
 H  1.86337714445400e+00 -1.87070248488328e+00  2.44566904707978e+00    -2.60488461774281e+00 -1.89099894023169e+00  1.97771335898632e+00 
 H  4.98893985006666e+00  6.79368834058105e+00  2.19789051677624e+00     3.04926880767835e+00 -1.34860200794387e-01  2.24790864702890e+00 
 O  4.62513802142152e+00  9.93945283487388e+00  6.86594825087265e+00     6.27729081360203e-01 -3.30024139860165e-01 -6.11079610795620e-01 
 H  5.34645350669420e-01  7.34141263266791e-01  1.91972700871303e+00    -2.59390837160850e-01  4.59868340113831e+00 -1.99692730188308e+00 
 H  8.75740228845263e+00  3.75035084968542e+00  1.28126705624445e+00     5.81601937064923e-02  9.35011412025022e-02 -1.35486123043730e+00 
 O  7.99247260168525e+00  4.19032717254970e+00  1.03789599653896e+00     4.70592061059113e-01 -7.91248991382787e-02  7.58431253941014e-01 
 H  1.07863782214157e+00  7.41734834952330e-01  2.76705815927105e-01     1.32988432729562e+00  5.70923394139364e-01  5.93612571863997e-01 
 H  7.68857118359353e+00  8.10854766238392e+00  2.59108532547597e+00     8.56705138665866e-01  9.07551511985857e-01 -2.21029602113779e+00 
 O  7.75181098861515e+00  6.09883358315852e+00  6.38353670967251e+00    -2.89924501457970e-01 -1.61386282590307e-01  3.81295098683095e-01 
 H  5.24210209268009e+00  9.95475526342233e+00  6.21941328215099e+00    -7.57253972701068e-01  8.54571371286166e-01 -2.82285697320073e+00 
 H  6.08978035785757e-01  5.09876730618141e+00  4.28398113095612e+00    -1.12540667160873e-01  1.83894078554175e+00 -1.00455394292725e-01 
 O  5.73665834872613e+00  3.91459693304677e+00  8.58801596165887e+00     1.35913597453481e-01  4.77165326365062e-01  3.85831719920316e-01 
 H  6.53406417932753e+00 -5.70332458771674e-01  5.92693368780463e+00    -2.09659748522945e+00  1.74048843419857e+00  8.22946569035242e-01 
 H  6.44455604686175e+00  2.72679278880040e+00  1.36733389445155e+00    -2.66721898731684e+00 -4.96076876333326e-01 -2.70448798741156e-01 
 O  5.17115295167077e+00  1.29915692710856e+00  4.03007693603716e+00     8.00879194369505e-02 -1.00656460792201e-01  1.94308849154435e-01 
 H -8.52829431408241e-02  6.50471931444325e+00  3.29419721710546e+00     9.02729833803563e-02  1.72789570037808e+00  1.68837239902234e+00 
 H  6.40944856026557e-01  1.92431589264885e+00  3.80973083086452e+00    -3.43669607861780e+00  8.03559976489425e-01  6.20893240911373e-01 
 O  3.11273226296477e+00  5.28060998273400e-01  9.59767706905462e-01     7.33311616756301e-01 -2.61628354106147e-01  8.43623869636688e-01 
 H  4.32026129565890e+00  2.51413565996603e+00  9.03266706406638e-01     2.49894213648062e+00  1.68511847345956e+00  1.18028882479450e+00 
 H  6.34656666840873e+00  2.95868893803401e-01  8.06936876277643e-01     1.27714222469759e+00 -3.24346102800542e+00  1.69660114250483e+00 
 O  5.81194805663897e+00  6.10377723439735e+00  4.74640754597658e+00    -3.17159238837071e-01 -8.03447850586229e-01  1.26156981083560e+00 
 H  9.62382280292960e+00 -3.35266836734877e-01  2.76092862732542e+00    -3.01287244263009e+00  3.12232205158313e-01  1.25711932394158e+00 
 H  2.15779041391146e+00  7.45820482255150e+00  6.69801356055818e+00     5.10214689143644e-01  5.92767742593359e-01 -2.45777003205906e+00 
 O  1.69753690531566e+00  4.23794968506778e+00  1.42819949261005e+00    -3.55227541031108e-01  3.10002687454896e-01  4.67971790155930e-01 
 H  1.24105842979394e+00  2.85085362944201e+00  7.68937104022152e+00    -5.56752751357329e-01  2.37996024021048e+00 -9.20230788268046e-01 
 H  4.71694441983300e+00  2.15225124245329e+00  3.86267107923782e+00    -2.07374627645450e+00  1.25322125973291e+00  3.16735927978477e-01 
 O  7.48661724712291e+00  3.81604609764988e+00  5.23926854778437e+00    -6.47217331333104e-01  9.35394609310788e-01 -7.26012207860129e-01 
 H  2.49285595544932e+00 -1.93403229835929e-01 -4.24000311674285e-01    -5.77251078778590e-01 -1.83582815039773e+00 -3.28896219436931e+00 
 H  2.53484373000689e+00  5.47492232782870e+00  6.07531814691260e+00    -1.79306066142541e+00 -7.84201749647642e-01 -7.58410322072551e-02 
 O  6.52861246049998e+00  2.55665368895093e+00  2.34780638685188e+00    -3.52135299388226e-01  1.05800583364086e-01 -3.55738906103330e-01 
 H  6.07513665965361e+00  6.40601822563831e+00  3.88763805894815e+00    -7.57503362018315e-01  4.58600690527470e+00 -1.63637420447281e+00 
 H  5.27696381688961e+00  6.82538857334055e+00  5.29789867861070e+00    -3.62200277546860e+00  2.18242652980426e+00  4.85971404495540e-01 
