   96
 8.60913090000000e+00  8.60913090000000e+00  8.60913090000000e+00
 O  4.51209377250543e+00  6.62069949815837e+00  6.53725157597795e+00     8.25304985461066e-01  7.18922211754916e-01  6.68912066930871e-01 
 H -3.50892984903356e-01  9.70849345815272e+00  5.55598197213709e-01    -1.41695264679891e+00  4.72661860719603e-03 -2.70766904570722e-01 
 H -1.61008786920006e+00  5.44994261008076e+00  6.69720295357843e+00    -1.40999807545810e+00 -2.36677129014169e+00  2.38184197310672e+00 
 O  8.57573930469746e+00  8.04519519605989e+00  5.70330801151587e+00     9.51128730932862e-02 -3.07284629724183e-01  9.43603906806995e-02 
 H  5.72668883742420e+00  2.15119749342735e+00  6.00990841063485e+00    -8.70244954630560e-01 -4.06907678231631e-01  1.22873781869900e+00 
 H  8.71062742978441e+00 -1.46045740156707e-02  3.26039570965042e+00    -2.40189969127412e+00 -3.45494994110715e+00 -2.56192380604756e+00 
 O -7.44438188753420e-01  6.17053981786510e+00  1.84866801830339e+00    -8.38378341811060e-01 -6.22104403876672e-01 -4.61888942592623e-01 
 H -1.78715573024480e+00  4.49057177794556e+00  8.88125893627371e+00    -4.23148443382464e+00 -2.06586230192041e-01  9.26874442068341e-01 
 H -1.11560579134805e+00  6.59230539871693e+00  8.33549270696993e+00     1.41137131012093e+00 -3.25021159383579e+00  7.41093713261552e-01 
 O  1.44781427485759e+00  2.07161853572729e+00  3.00147267816210e+00     1.33945665015620e-01 -2.06309155480411e-01 -4.65767097642396e-01 
 H  4.44219896860821e+00  8.32991218273954e+00  9.63039475436200e+00     4.28721709057365e-02  2.52138713101072e+00  1.38351793364096e+00 
 H -2.27192789796623e-01  9.53002582487813e+00  7.73321571129590e+00    -3.82424896845162e-01  4.55237978471693e-01 -1.82483811926780e+00 
 O  1.89409246346690e+00  5.00993195026438e+00  7.73515844748362e+00     1.70363582271556e-01  1.23493399130402e-01 -2.75158343432720e-02 
 H -1.34813821543743e+00  1.29945809210416e+00 -3.89660510640662e-01    -3.52484231483806e+00 -1.91238232884581e+00 -1.46657872690398e+00 
 H  1.23542013159365e+00  3.90808971559179e+00 -3.23459984270946e+00     3.43918373562624e-01 -1.36619468278255e+00 -1.29878448842408e+00 
 O  8.20888955484008e+00  2.80916321816540e+00  7.34842228428007e+00    -2.96180322445655e-01  7.10130662424760e-01 -5.10201955782562e-01 
 H -3.51991605778510e+00  5.31085042717687e+00  2.13349381873080e+00    -1.64665886341741e+00 -1.32848571435400e+00 -6.07958745547951e-01 
 H  3.18148729039587e+00  6.55108687191244e+00  1.15099276608487e+01     2.08797473715345e-01 -8.73286840484261e-01  1.10640952784669e+00 
 O  4.33118783582516e-01  4.45450487458908e+00  3.61593890905864e+00    -2.52563541008956e-01 -2.64109099614354e-01 -6.06537605873130e-02 
 H -1.10062760731189e+00 -2.05268092579708e+00  3.93261444055434e+00    -3.16810927170022e-01  7.75299494332801e-01  1.61314974280688e+00 
 H  5.04713032310501e+00  9.25802845637430e+00  7.30051726576691e-02     8.33462202610737e-01 -1.17767001969665e+00  5.11909199778996e+00 
 O  1.73615421980021e+00  5.73277554628757e+00  2.87347404738944e+00    -8.78836819040379e-01 -2.11702201451685e-01  1.01970887912823e-01 
 H -2.48509806062308e+00  4.84495982771302e+00  7.67560435022459e+00    -8.43772310468555e-01 -1.52871472460213e+00  4.08380363244829e-02 
 H  6.81779254331400e+00  6.22291056227383e+00  7.54444161770707e+00    -1.96314035115582e+00  4.48497617106275e-01 -2.51385291998412e-01 
 O  6.58421855888776e+00  2.16802482074239e+00  1.32238497202738e+00     1.94076817657651e-01 -7.69600278446538e-02 -6.47712805066758e-04 
 H  4.91197076951491e+00  2.89326134023468e+00 -8.73378845620929e-01     1.87062759462971e+00  2.59423603347194e-01 -3.83563263050772e-02 
 H  4.81155359019837e+00  4.82412492054977e+00  4.73615803905003e+00     1.51448152628729e+00 -2.40384909391479e+00  9.30513309344867e-01 
 O  3.24228385227650e+00  1.83786168244317e+00  4.43238699042525e+00     4.51790093208645e-02 -4.49232748536362e-01 -5.12445078048097e-01 
 H  8.95185304524257e+00  5.14152100417690e+00  8.00849877536873e+00    -3.17781073002323e+00  6.92815401860131e-01 -6.91245234278280e-01 
 H  7.58305789686517e+00  9.91418751574050e+00  1.29842101040989e+01     3.53957288480444e+00  1.82611099828523e+00 -1.02397509292794e+00 
 O  2.84050641007502e+00  2.94495410512941e+00  1.63963197420077e+00    -3.02902280060428e-01  2.97318060671110e-01 -2.21117792712167e-01 
 H  7.44068473882170e+00  4.68655133445631e+00  3.28378753449257e+00    -7.33508874884231e-01  7.18105444459309e-01  1.98553482687657e+00 
 H  3.66572663806410e+00  1.26537584932237e+01  2.82622595912118e+00    -3.81609362391437e-02  3.77134009803710e+00 -1.12895088527646e-01 
 O  9.46477825455586e+00  1.74337381341879e+00  1.70790060470410e+00     4.72410035787427e-01  6.39636257994702e-02  2.37683792364786e-01 
 H  1.24013995119940e+01  7.89270196492482e+00  5.48558967827333e+00     8.41497230411034e-01 -2.67279378870291e+00 -1.51275145810965e+00 
 H  5.08581692910704e+00  6.35712940236178e+00  1.07191359467052e+01    -5.62378979250300e-01 -1.43074012504117e-01  3.49463401366051e+00 
 O  7.29450122294188e+00  7.71683539958672e+00  1.68552176352810e+00    -2.72369102100651e-01 -4.39875977450059e-01 -3.63333737627294e-01 
 H  6.15575677786206e+00  3.63800055574763e+00 -9.67886240792017e-01     2.29353958130519e+00  1.12536730067777e+00  1.98744019162814e+00 
 H  3.47978236806045e+00  1.09296583051761e+00 -5.61110818767232e-01    -2.02075031012902e+00 -1.42242204984352e+00 -2.22907089207028e+00 
 O  5.34067787691158e+00  3.36475891617719e+00  4.40832822110336e+00    -1.36277954666301e-01  1.76257626753851e-01 -6.37681963062779e-01 
 H  5.25071186489663e+00 -6.41227114823321e-01  6.24228043046417e+00     1.47215930894877e+00 -1.10225241771405e+00 -1.31552494413531e+00 
 H  6.16616083465295e+00  1.42657593621522e+00  7.44082757142060e+00     4.13889049727742e-02  3.72168738655237e-01 -3.40488262750450e-01 
 O  1.25997862586995e+00  5.84454654352064e-01  6.66443448939570e+00    -2.58033350318246e-01 -5.20191400001118e-01 -1.58280629748544e-01 
 H  5.58601743266754e+00  4.35130938978012e+00  3.67929839974387e+00     7.72433224332235e-01 -1.92194762670618e-01  2.09268074324230e+00 
 H  1.15663826687992e+00  5.86144529705355e+00 -1.85924461017634e-01    -2.43327945012055e+00  7.35563407427061e-01 -1.98192637918340e+00 
 O  6.75942966285633e+00  6.86504964814524e+00  9.43630183655588e+00    -2.88105859969699e-01  8.08524452146110e-02  6.71629577330247e-01 
 H  1.01185537857659e+00  1.16646311172530e+01  7.20944026269213e+00    -2.32731876898413e+00  2.00142189387217e+00  3.58555411155891e+00 
 H  3.44894945052895e+00 -2.87076329828610e+00 -3.83200240058713e+00     5.74213182108228e-01 -3.39042584037618e+00 -1.74114853452629e+00 
 O  8.47053976888769e-01  6.80810848115729e+00  1.09132739087918e+00    -1.34695109013620e-02  1.12609810676058e-01  3.29690752998706e-01 
 H  5.87266921309349e+00  5.14198282680383e+00  4.91361297503888e+00    -1.69245416562309e+00 -2.06671193704095e+00  3.49104827091366e+00 
 H  3.30113535265400e+00 -5.92345548276532e+00 -1.08744868705271e+00    -2.32882405564504e+00 -5.59457380217366e+00 -2.10372919984620e+00 
 O  6.12841431001451e+00  6.97476774260936e-01  6.19991855552984e+00     1.64447716989968e-01 -4.13356919562241e-02 -2.65647644498587e-01 
 H  6.13695035560381e+00  3.97690362993323e+00  2.40990226861203e+00     1.54031426338997e+00 -1.35205282589595e+00  1.09677664075484e-01 
 H  3.26236190814990e+00  4.01934344399413e+00 -3.40438022856233e+00    -1.33786386440389e+00 -1.80061511955298e+00 -1.76079046597819e+00 
 O  3.96325808682464e+00  7.64296430447620e+00  3.75990721232872e+00     5.79858066556404e-01  7.26440620398791e-01  2.84479197154385e-01 
 H  5.00384395204056e+00  7.42972415100627e+00  6.55950070391764e-01     3.20405163379182e+00  8.01791769569448e-01 -1.58761514706748e+00 
 H  2.48676438990866e+00 -2.07854820168093e+00  5.58658689324147e+00     1.24948026333985e+00  1.08635817849103e-01  4.81315078350875e-01 
 O  4.65647597763063e+00  5.79179867419998e+00  5.96455872790404e+00     4.42501192175424e-01 -1.87005836768400e-01  4.56481451958404e-02 
 H  3.00125652405260e+00  8.87398696138022e+00  7.43900052924089e+00     2.25590944048913e-01  1.42525285108314e+00 -1.11349126609157e+00 
 H  7.87425572701069e+00  3.64425651667849e+00  1.41230476538292e-01     1.32587224650772e+00  1.20430141309214e-01 -1.34286874191873e+00 
 O  4.59079918950597e+00  7.99579962798224e+00  2.62305224795039e+00    -3.49021474552870e-01 -7.65824458831209e-02  7.49745919704729e-01 
 H  1.64877755737202e+00  6.70345212456677e+00  6.33290009821287e+00    -1.51616732413338e+00  7.06891869794260e-01 -1.47604672395804e+00 
 H -7.40611664043245e-01  4.38002635173315e+00  4.85019026206508e+00     1.48813742866970e+00 -4.29669194864612e-01 -1.83435316361412e+00 
 O  5.58952072163371e+00  6.27082010801241e+00  7.10832140601666e+00     2.40272063695615e-01 -1.17893147695811e-01  1.57285485570575e-01 
 H  8.38047473314126e+00  9.82933181030049e-01  5.83624881268944e+00    -5.85254096182392e-02  2.09366653968919e+00  1.73558074084377e+00 
 H  9.70409085462864e+00  8.40888336105760e+00  3.78184328546674e+00     1.88955682537898e+00  1.40200107144109e+00 -3.37724269686008e-01 
 O  4.37933585450038e+00  9.82145936931030e+00  7.33883510853221e+00     3.00159850049076e-01  7.47902876833780e-01  3.42475660486368e-01 
 H  3.98805709005758e+00  4.97935266381724e-01  1.75173423896340e+00     3.77017174633221e+00  3.91153132152591e+00 -4.08760628938445e-01 
 H  8.73602692695438e+00  6.05784641759262e+00  6.54323869887330e-01    -2.41171158617281e+00  1.35067081556191e+00 -3.91227530009404e-01 
 O  8.18648229331944e+00  4.70555611483410e+00  3.51015652308889e-01     4.25044351297448e-01  9.05699324377562e-02 -5.40888218303267e-03 
 H -9.06607953687260e-01  1.17743356495697e+01  6.00804712706560e+00     3.90275971173205e-01  2.32115673736678e+00  1.52913636548851e+00 
 H  7.21971222945798e+00  7.08524874781179e+00  3.10279197016039e+00     1.83269270693537e+00  8.39181872858866e-01  1.34458766101705e+00 
 O  6.78613774828977e+00  4.75057614127959e+00  5.55122857625156e+00    -4.98453430405599e-01 -2.73574931965831e-01  4.11524186094707e-02 
 H  5.61908441112167e+00  9.88486772836731e-01  4.99583252446743e+00    -2.21435435393987e+00 -1.37177514221173e+00 -2.01102077687615e+00 
 H -4.54552971277865e+00  2.01738325440904e+00  1.82148523726950e+00    -2.55055415826128e-02 -1.76613474773241e+00  5.58574863124302e-01 
 O  5.38073207107048e+00  4.22290769239899e+00  8.61816153323290e+00    -6.26218853326791e-02  5.32699334820321e-02  2.14378453502723e-01 
 H  7.06969601414633e+00  1.75002758444277e+00  5.52885617455832e+00     2.70961554917569e-01  1.86590306407880e+00 -1.05628288616040e+00 
 H  1.26523467869759e+01  2.34614509408904e+00  6.64901017784911e+00     1.25798684538723e+00  3.23310015213364e+00 -1.08887434625406e-01 
 O  6.39013454905731e+00  1.18891941277892e+00  2.87721597940547e+00     3.62500166040554e-01  2.78042673320459e-01 -2.85779945419790e-01 
 H -2.15922400805901e+00  6.16893029987274e+00  2.20914759548846e+00    -1.65969180412827e+00 -1.38829487442053e+00 -4.15032298727824e-01 
 H  1.92499383485320e+00 -1.55255706357049e+00  4.48040212242614e+00     3.97426809209126e+00 -1.49786964669561e+00 -6.62403926231899e-01 
 O  2.89225629052140e+00  4.59430774917335e-01  8.66993545359222e-01     2.05163483620474e-01  4.92112539518675e-02  2.07200588844717e-01 
 H  6.75024326062178e+00  7.93084459966784e+00  5.81436473320120e+00     2.60902034388905e-01  1.02250556441592e+00  1.80395084257588e+00 
 H  2.31170592518128e-01  9.10072206616815e+00  1.71848506596111e+00    -4.44877351024548e+00  1.81237837048870e+00  7.21334700129686e-01 
 O  5.67454556243958e+00  5.85271490368484e+00  3.35263770431058e+00     7.19009761620936e-02 -4.00076970749699e-02 -6.96797151745417e-02 
 H  9.34398449813778e+00 -3.58265794536751e+00  7.00520289370153e-01     5.19522480161085e-01 -1.78641005077716e+00  7.58987768981819e-01 
 H -9.48000282496576e-01  4.12028390534601e+00  6.88273744355662e+00    -4.74975457424790e-01 -1.25348118600163e+00  6.22382026320304e-01 
 O  1.84294146541871e+00  3.80698122714762e+00  9.45571351705141e-01     8.51940088741476e-01 -4.83275557096337e-02  8.70490882369506e-02 
 H  6.17259519353258e+00 -1.24844991425937e+00  1.09097478401778e+01    -1.47506462340792e+00  3.73200243506559e+00  9.11964865591434e-02 
 H  4.48313651410646e+00  3.84737647624920e+00  6.16292793369270e+00    -1.76194274544924e-01  3.06226173058495e+00 -3.52695956106076e+00 
 O  6.89951953919675e+00  3.63591913133069e+00  5.00663103394042e+00    -4.70960917535321e-01  2.01190858455606e-02 -3.90725813542602e-01 
 H  2.61009244396123e+00  4.32800687632545e+00  3.50057193133339e+00     1.47404966120246e+00 -1.54461499050845e+00  6.83423812449828e-01 
 H  2.71408378807259e+00  5.76635593337036e+00  8.28120674995079e+00    -1.45298358088256e+00 -6.13229985342781e-01  1.36103803158494e+00 
 O  7.81076945519366e+00  2.80748460343335e+00  3.36013010884767e+00     7.42005119780355e-02  5.88646448183708e-02 -1.16231407563381e-01 
 H  5.49816128412510e+00  7.66700687761549e+00  3.69974148945841e+00     7.09245280546443e-01 -6.48544935122447e-01  5.04829489113109e-01 
 H  6.27797340443786e+00  6.76759535043257e+00  4.68135829269278e+00    -1.25397729002209e+00  4.32232722033987e-02  6.04953189681051e-02 
