   96
 8.60913090000000e+00  8.60913090000000e+00  8.60913090000000e+00
 O  2.14232837568463e+00  7.10557475945379e+00  6.70756923413172e+00     3.83103137903355e-01 -7.71393455381953e-01 -1.94463790153315e-01 
 H  1.17090354574300e+00  5.67973134729955e+00  1.16117002280280e+00     2.28592961475919e+00 -2.64761267531065e+00  2.94263678900953e+00 
 H  1.93178080210456e+00  3.82740773916110e+00  9.64029611445626e+00     1.66297567827594e-01 -1.90190474341804e+00 -1.73359208275773e-01 
 O  9.67108708949110e+00  8.50139708967730e+00  5.22862174025548e+00    -5.33470518942352e-01  1.48890288998117e-01 -6.19446524750620e-01 
 H  2.85687914349132e+00  4.03898994543268e+00  7.59197736667495e+00     9.75791371232453e-02  7.50547622373969e-01 -1.81747539617079e+00 
 H  8.22633130989424e+00  5.10344833063993e+00  6.16558745231262e+00    -1.45292960542029e+00  2.19691505139302e-01  2.00736689214414e+00 
 O  2.54022573152041e+00  7.95563820387327e+00  3.20012836434656e+00     9.29565406272422e-01 -2.90832889775926e-01 -2.58986859439308e-01 
 H -1.85362564563291e+00  1.35056419372833e+00  6.48670820799962e+00    -3.66594881039813e+00  2.31740402810608e+00 -1.61261736919366e+00 
 H  5.77264124624246e+00  7.54607849443092e+00  7.64369364593729e+00    -5.17392827986006e-01 -1.13819722529885e+00 -1.54116830773061e+00 
 O  3.25370220921582e-01  2.35519700507191e+00  3.25784007887565e+00    -5.04027929652306e-01 -1.03025038682178e-01  6.77104223456049e-02 
 H  5.25033067677319e+00  4.88280316284781e+00  7.73384110448331e+00     1.78491318257733e+00 -1.32655578359862e-01 -1.66664756291132e+00 
 H  4.18842652682091e+00  9.35958290723924e+00  7.10901902016988e+00     1.36587650057495e+00 -8.77640343710854e-01  2.54012497901160e+00 
 O  2.74596175724214e+00  4.95421375902144e+00  7.84258163022390e+00    -2.09183480299010e-01 -3.86947625694860e-01  9.03838366655776e-02 
 H  5.14250811530601e+00  3.94920117708373e+00  3.27046566752450e+00     9.74284986998594e-02 -1.34361589880450e+00  2.38537760041594e+00 
 H  1.61323863039780e-02  6.73870557926095e+00  2.29763801486832e-01    -9.02918117852197e-02 -1.93938294613768e+00 -7.57682383467302e-01 
 O  7.48877321189876e+00  1.50178167894301e+00  6.99992205789965e+00    -2.78248178039208e-01 -1.32276466945860e-01 -1.12745806867245e+00 
 H  2.86617558227483e-01  3.84561398289524e+00 -8.82545988130727e-02    -3.32907333355329e-01 -3.24393164096367e+00  3.32083755558657e+00 
 H  5.92032417597445e+00  4.60836034160025e+00  6.40213302543204e+00    -2.76135768019203e+00 -8.25032687946970e-02 -6.10637579127698e-01 
 O -1.41940801284811e-01  5.45175232260375e+00  3.47269137421283e+00     4.06437443077398e-01  7.43478780169516e-01 -1.33271985995725e-01 
 H  6.16733849077747e+00 -8.19224511779110e-01  6.08494647715030e+00    -1.47958051106360e+00 -8.10281863412301e-02  1.34664379499881e+00 
 H  4.17437264967698e+00  5.48662832404357e+00  1.07310397728672e+00     2.00971997262357e-01 -3.86179861878991e-01 -1.32372860001844e+00 
 O  3.60467641265275e+00  5.57620384167770e+00  1.86878136557286e+00    -4.29429130289370e-01 -3.42342877410904e-02  6.09361982218649e-01 
 H -5.16023469914459e-01  2.95422189729072e+00  6.16994393827966e+00    -2.22998645757098e+00  7.28140263940901e-01 -1.31679087537490e+00 
 H  5.12478575984239e+00  6.42806642798688e+00  3.96958543784115e+00    -4.94690699918798e-01 -2.39209335470435e+00  3.14284652923758e+00 
 O  5.63656147353375e+00  1.29132810480283e+00  1.19227137922664e+00     6.82082991933212e-02 -9.19744604877797e-01  6.43261148553645e-02 
 H  4.92408427167065e+00  4.24775516742040e+00  4.72178941570174e+00    -1.31999914421456e+00  2.27130683693951e+00  1.78049656514610e+00 
 H  3.48397922022289e+00  8.20330984089243e+00  2.86145003125580e+00     1.86622002467133e+00 -1.43345990383873e+00 -7.52796877112788e-01 
 O  2.93763760756894e+00  1.72262856189799e+00  4.55848822254844e+00     5.16974815930855e-02 -3.16882655105077e-01  7.57799099388751e-01 
 H  7.62103562147192e+00  7.83154424259280e+00  8.20771111792118e+00     1.23993827068964e+00  4.68066344661957e+00  1.15790398663726e+00 
 H  7.03489742174661e+00  6.29033146916287e+00  6.93036890027803e+00    -2.41794495670688e+00 -1.73288400762530e+00  4.71333043382322e-01 
 O  3.34602074598013e+00  2.54079803018232e+00  1.07422675046494e+00    -2.58220237325205e-01 -1.14309635561875e-02 -7.08151333996339e-01 
 H  7.94949187989690e+00  2.80486636285580e+00  4.60901883957360e+00     8.65393159524476e-01  7.96900442601465e-01 -2.43808092000883e+00 
 H  7.67441072510037e+00  2.87015887771825e+00 -7.33547043421267e-01     3.16798927858595e+00 -2.48331744993679e+00 -1.23828654132281e+00 
 O  9.14333531697634e+00  1.03869957807549e+00  8.08314658912754e-01    -1.52156061306720e-01  7.15303193774960e-01 -7.16354629453849e-02 
 H  8.69055803619455e+00  8.62869793639691e+00  4.88807365714207e+00     2.85557786197549e+00  1.12710320000416e+00 -2.04068497120157e+00 
 H  3.88526119322977e+00  7.86555850851619e+00  7.85479389847727e+00    -2.89799622664639e+00 -1.92729009013434e+00  1.75839956653744e+00 
 O  7.54355201064272e+00  8.36794530383072e+00  2.93956822983080e+00    -6.70330278705107e-01  1.11399756345022e-02  8.57099681209376e-02 
 H  1.53095103404906e+00  4.33528453944547e+00  2.51220923211639e+00    -1.28634325150359e+00 -6.90783047179173e-01  2.70339777854774e+00 
 H  9.48687641264824e+00 -1.10722935315536e+00  5.46168752824956e+00     3.65119111403040e+00  2.25256036848820e+00  1.70939518636005e+00 
 O  5.05896000462735e+00  4.11324589599953e+00  6.18516989747400e+00     3.33320207464556e-01  8.40398880971176e-01 -3.04810764252715e-01 
 H  6.49171759015630e+00  4.36885564264943e+00  8.55122274167838e+00     1.71505769852691e+00 -3.83808233137759e-01 -6.32589636650667e-01 
 H  5.19903291630790e+00  1.12392615632961e+00  8.99269486103946e+00     3.06983891264813e+00 -1.38923578181831e+00  2.38361926724506e+00 
 O  1.30183730870691e+00  2.07655504668692e+00  6.76766542658113e+00     2.66656739856750e-01  7.35110876224976e-01  4.65395422917373e-01 
 H  2.41381249902146e+00  8.97735224051689e-01  4.76627090129272e+00    -1.05623506183362e+00  2.43721982608078e-01 -3.03321586383361e+00 
 H  5.13460653129474e+00  3.26136197577676e-01  3.68463774580510e+00     5.16983014444184e-01 -1.93575253363371e+00  3.69676929776047e+00 
 O  6.83672535057423e+00  8.03323751856860e+00  8.67849949085839e+00    -6.43869332438319e-01 -2.21189623509575e-01  3.03546686518281e-01 
 H  3.07872531475780e+00  6.50992279807475e+00  1.43827462039469e+00    -2.15337406519706e+00  2.76319940125537e+00 -4.36328282025333e-01 
 H  9.42290466161226e+00  1.97824263528641e+00  3.50704036425785e-01    -1.93399216859710e+00  4.51291050929363e+00 -3.00336451856677e+00 
 O  4.11469170199834e-01  6.25705101147009e+00  8.24648713349984e-01    -3.32871575735771e-01 -4.01922973021506e-01  2.14002926206877e-02 
 H  4.70718104791800e+00  3.57602655362877e+00  6.98052911475732e+00     5.31409773458612e+00  6.37013503859735e-01 -2.81780353710742e-01 
 H  6.33269956752718e+00  1.74903407798237e+00  1.68273944754164e+00     1.32282960950996e+00  2.20697117677654e+00  1.05800799228523e+00 
 O  6.69387467747137e+00 -6.85706346937357e-01  5.31239059619519e+00     7.42831170766269e-02 -1.19400321712787e+00 -4.80646530860603e-02 
 H  3.08300902144489e+00  7.16686691020013e-02  1.58561863807298e+00    -1.60164702861237e+00  4.17762929822722e-01  9.13416567798016e-02 
 H  3.65408793045108e+00  2.66013972162859e+00  1.97230723110359e+00    -3.39195779580825e+00 -5.56635094057475e-01  1.92414694038434e-01 
 O  3.21772221448253e+00  5.78589081482924e+00  4.81804193208891e+00    -1.12024740804984e-01 -2.02830182574967e-01  5.27417181288441e-01 
 H  1.25904042585853e+00  3.00162696296438e+00  2.11182723392891e+00    -7.81526728574884e-01  1.19897753826138e+00 -7.39635432362484e-01 
 H  3.31924834751664e+00  1.26903537368493e+00  3.86458050578817e+00    -2.43368538526268e+00 -1.38787468965693e+00  5.18924728995197e-01 
 O  4.34148477107745e+00  3.89284003718252e+00  3.92872390391545e+00    -7.90331173364303e-02 -4.62171831435143e-01 -4.11456685220751e-01 
 H  5.85064650824046e+00  5.27969745596337e+00  9.50706489427639e+00    -6.84792760886591e-01  1.31908387092268e+00  2.34522393402638e+00 
 H  7.29016503255484e+00  3.97954747927899e+00  1.61228295636574e+00     3.81668921276890e-01  1.76949446229641e+00 -1.58909059637748e+00 
 O  4.42679873887415e+00  8.42389037807598e+00  2.09917739820399e+00     7.52725057591646e-01  5.36903697123808e-01  7.15629180042001e-01 
 H  1.44921286070022e+00  7.75711636760151e+00  6.80523431169076e+00    -9.04153442287368e-01 -1.24555585298572e+00 -2.60208042293498e+00 
 H  2.72886222168870e+00  6.14758338700311e+00  5.56907529454779e+00     2.01506052483555e+00 -1.30398086725562e+00 -6.37153664138266e-01 
 O  4.68732688500555e+00  7.49495040486580e+00  7.58618629362723e+00     3.10218346698647e-01  5.87232138802674e-01 -2.07972193057034e-01 
 H  1.58962877347300e+00 -9.80681982535091e-01  3.00005965649317e-01     1.31776394531252e+00 -7.11046504680446e-01 -2.50659423340397e+00 
 H  4.89834867385640e+00  7.77016269128819e+00  1.48787273405376e+00     2.18137830525044e+00 -1.09314005390935e+00 -3.26272616299525e+00 
 O  4.41298611040279e+00  1.02835969520171e+01  7.49640527589183e+00     6.91788788781618e-02  4.74105134422317e-02 -1.55939409560274e-02 
 H -5.30857722465654e-01  1.07264721321019e+00 -2.01249251861919e+00     8.63694855993494e-02  1.70413301291223e+00 -1.92100530850814e+00 
 H  6.87858849922492e+00  8.01960452746479e+00  1.02512285244215e+00    -2.21019113647420e-01  2.47623938438751e+00 -1.75451017451518e-01 
 O  7.94154932090530e+00  3.64997150118197e+00 -9.05090404426404e-02     6.54595702284753e-01 -5.52358143362735e-01 -1.05465033103943e+00 
 H  9.63484314451977e-01  2.10403794663523e+00  3.97130002608306e+00    -3.70441338561839e+00 -1.08209226138248e+00 -5.59843816271201e-01 
 H  8.27139422651804e+00  9.08383375097540e+00  2.44454665769338e+00    -4.74379468227912e-01  1.59652452833142e+00  5.90666554413559e-01 
 O  8.17663261843850e+00  5.86694466142131e+00  6.83986864926364e+00     6.69387780302938e-01  2.14743406580012e-02  3.43147625045738e-01 
 H  3.87759422262479e+00  1.07126607697268e+01  6.73692638667608e+00    -3.05639204780251e+00  2.90256526175589e+00 -1.94991135329422e-01 
 H -1.56917416247761e-02  6.41806288248664e+00  3.75006803713042e+00    -3.12331925832038e+00  1.92878607239017e+00  3.71988790087576e-01 
 O  5.48236777219190e+00  4.81827664670683e+00  8.71078860551599e+00     4.84191789899189e-01  4.78581807433584e-01  3.33849999508818e-01 
 H  6.68614476507430e+00 -2.63900840435532e-01  4.37796420373600e+00     7.17678821212185e-01 -1.63481746042748e+00 -3.85560763584461e-01 
 H  6.63440945990507e+00  2.95271682529378e+00  2.94269172848196e+00    -1.42575952468365e+00 -1.81109564448751e+00 -2.39447509442087e+00 
 O  5.56365303138339e+00  1.32696716468853e+00  3.99499247050459e+00     5.44599503780549e-01  6.75960643449512e-03 -1.11073996940044e-01 
 H -1.02117912324509e+00  5.14832865775024e+00  4.01452610411627e+00    -7.55892807178501e-01 -6.54396980549840e-01  2.50986759631782e+00 
 H -2.97774248462034e-01  2.65931133821682e+00  2.61578946729957e+00     2.69633379693525e-01 -3.54503383495023e-01  1.76578031866644e-01 
 O  2.48213738513113e+00 -1.92525136772052e-01  7.00964139564943e-01     2.60839164273971e-01 -3.11474596677990e-01  4.05036559266614e-02 
 H  3.07235660731045e+00  2.96200879917695e+00  2.23503574782539e-01    -3.25811202533243e+00  7.60685470171963e-01 -1.39892992280132e-01 
 H  5.19957624484392e+00  4.95327069148994e-01  1.84406686003196e+00     4.14489992862942e+00  7.94155438951530e-01  4.35929489932769e+00 
 O  5.96338067117796e+00  6.17525795675263e+00  3.36100885011657e+00    -3.77903597722778e-01  3.89063524280603e-01  1.65892916597698e-02 
 H  1.03646137698700e+01  6.46587299499877e-02  3.48844023134798e+00     3.06053282747197e-01 -3.84843383936339e-01  2.94989929128251e+00 
 H  1.93862159115810e+00  5.20962579567036e+00  7.34904305811714e+00    -1.56480781253838e+00 -1.68281484088311e+00  1.38715955900150e+00 
 O  1.27183397379927e+00  4.04051996257052e+00  1.66348858909531e+00    -6.73075490019453e-01  2.15339673976629e-01  2.85979314419577e-01 
 H  1.26512022552712e+00  1.32941165143767e+00  6.22321044858265e+00     2.01933351839580e+00  1.55902350134395e-01 -1.54241498683764e+00 
 H  4.92493529428389e+00  2.04592195836302e+00  4.19727871033249e+00     1.55165456735545e+00  1.46867566530474e+00  2.24487392303245e+00 
 O  7.58792940217807e+00  3.25093972885723e+00  5.40867368125192e+00    -2.96915246046607e-01 -1.07058754395226e-01  1.59833544698058e-01 
 H  1.55910225589087e+00  6.14556393837252e-01  8.64694431683619e-01    -1.55506744812335e+00  2.35195292572537e+00  3.54077729455945e+00 
 H  2.26794331758750e+00  5.55834832465262e+00  4.25594275585796e+00     8.98627825831555e-01  1.33640634069920e+00  4.33890194552453e-01 
 O  6.82218690555735e+00  3.28519794386188e+00  2.04415567739452e+00    -4.76658550001494e-01  5.73534497453747e-01 -4.43185395484730e-01 
 H  3.78218427136186e+00  3.90617094306386e+00  4.75301814356302e+00     2.90594996059996e+00  8.01804423827641e-01  7.03941677768236e-01 
 H  6.63000275542472e+00  6.95413203965810e+00  3.24656054092887e+00     9.71443008314963e-01 -5.85237223006909e-01 -4.51165077010746e-01 
