   96
 8.60913090000000e+00  8.60913090000000e+00  8.60913090000000e+00
 O  2.14232837568438e+00  7.10557475945368e+00  6.70756923413151e+00     3.83103137902135e-01 -7.71393455382497e-01 -1.94463790153800e-01 
 H  1.17090354574322e+00  5.67973134730014e+00  1.16117002280188e+00     2.28592961476755e+00 -2.64761267530997e+00  2.94263678900442e+00 
 H  1.93178080210392e+00  3.82740773916300e+00  9.64029611445478e+00     1.66297567834619e-01 -1.90190474341366e+00 -1.73359208276050e-01 
 O  9.67108708949111e+00  8.50139708967759e+00  5.22862174025544e+00    -5.33470518943047e-01  1.48890288997773e-01 -6.19446524749753e-01 
 H  2.85687914349231e+00  4.03898994543329e+00  7.59197736667355e+00     9.75791371368911e-02  7.50547622368150e-01 -1.81747539619359e+00 
 H  8.22633130990153e+00  5.10344833064025e+00  6.16558745231310e+00    -1.45292960542049e+00  2.19691505136621e-01  2.00736689213189e+00 
 O  2.54022573152047e+00  7.95563820387333e+00  3.20012836434654e+00     9.29565406274350e-01 -2.90832889775495e-01 -2.58986859439890e-01 
 H -1.85362564563406e+00  1.35056419373051e+00  6.48670820800160e+00    -3.66594881040086e+00  2.31740402813311e+00 -1.61261736915064e+00 
 H  5.77264124624267e+00  7.54607849443154e+00  7.64369364593499e+00    -5.17392827982143e-01 -1.13819722530857e+00 -1.54116830773204e+00 
 O  3.25370220920898e-01  2.35519700507187e+00  3.25784007887500e+00    -5.04027929661940e-01 -1.03025038677695e-01  6.77104223358866e-02 
 H  5.25033067677456e+00  4.88280316285057e+00  7.73384110448236e+00     1.78491318255818e+00 -1.32655578348182e-01 -1.66664756290578e+00 
 H  4.18842652680478e+00  9.35958290724008e+00  7.10901902017276e+00     1.36587650046687e+00 -8.77640343726673e-01  2.54012497904997e+00 
 O  2.74596175724193e+00  4.95421375902148e+00  7.84258163022417e+00    -2.09183480300138e-01 -3.86947625694298e-01  9.03838366666918e-02 
 H  5.14250811530622e+00  3.94920117707944e+00  3.27046566752356e+00     9.74284987184412e-02 -1.34361589880767e+00  2.38537760043879e+00 
 H  1.61323863049258e-02  6.73870557925901e+00  2.29763801483711e-01    -9.02918117799049e-02 -1.93938294615872e+00 -7.57682383500624e-01 
 O  7.48877321189993e+00  1.50178167894166e+00  6.99992205789884e+00    -2.78248178044269e-01 -1.32276466948347e-01 -1.12745806867114e+00 
 H  2.86617558226880e-01  3.84561398289848e+00 -8.82545988142742e-02    -3.32907333329595e-01 -3.24393164095943e+00  3.32083755558930e+00 
 H  5.92032417597408e+00  4.60836034160203e+00  6.40213302542889e+00    -2.76135768019010e+00 -8.25032687825023e-02 -6.10637579132757e-01 
 O -1.41940801284734e-01  5.45175232260422e+00  3.47269137421308e+00     4.06437443077983e-01  7.43478780171727e-01 -1.33271985994964e-01 
 H  6.16733849077636e+00 -8.19224511778589e-01  6.08494647714902e+00    -1.47958051106914e+00 -8.10281863446096e-02  1.34664379499040e+00 
 H  4.17437264968039e+00  5.48662832404641e+00  1.07310397728899e+00     2.00971997292834e-01 -3.86179861882214e-01 -1.32372860000495e+00 
 O  3.60467641265249e+00  5.57620384167731e+00  1.86878136557249e+00    -4.29429130291004e-01 -3.42342877421678e-02  6.09361982217766e-01 
 H -5.16023469913512e-01  2.95422189729001e+00  6.16994393827916e+00    -2.22998645756485e+00  7.28140263944603e-01 -1.31679087537542e+00 
 H  5.12478575984201e+00  6.42806642798736e+00  3.96958543784089e+00    -4.94690699923232e-01 -2.39209335469950e+00  3.14284652923722e+00 
 O  5.63656147353155e+00  1.29132810480472e+00  1.19227137922946e+00     6.82082991728320e-02 -9.19744604848497e-01  6.43261148412189e-02 
 H  4.92408427167319e+00  4.24775516742091e+00  4.72178941569898e+00    -1.31999914416571e+00  2.27130683695237e+00  1.78049656511127e+00 
 H  3.48397922022431e+00  8.20330984089104e+00  2.86145003125549e+00     1.86622002466453e+00 -1.43345990385213e+00 -7.52796877097663e-01 
 O  2.93763760756901e+00  1.72262856189799e+00  4.55848822254839e+00     5.16974815950895e-02 -3.16882655105443e-01  7.57799099385732e-01 
 H  7.62103562147263e+00  7.83154424259850e+00  8.20771111792164e+00     1.23993827069546e+00  4.68066344665547e+00  1.15790398664362e+00 
 H  7.03489742174614e+00  6.29033146915964e+00  6.93036890028390e+00    -2.41794495670747e+00 -1.73288400762798e+00  4.71333043428046e-01 
 O  3.34602074597872e+00  2.54079803018165e+00  1.07422675046321e+00    -2.58220237325960e-01 -1.14309635515800e-02 -7.08151334004090e-01 
 H  7.94949187989700e+00  2.80486636285816e+00  4.60901883957245e+00     8.65393159516854e-01  7.96900442618844e-01 -2.43808092000753e+00 
 H  7.67441072509964e+00  2.87015887771668e+00 -7.33547043420076e-01     3.16798927857643e+00 -2.48331744994211e+00 -1.23828654132165e+00 
 O  9.14333531697643e+00  1.03869957807580e+00  8.08314658913276e-01    -1.52156061306754e-01  7.15303193773812e-01 -7.16354629446047e-02 
 H  8.69055803619294e+00  8.62869793639597e+00  4.88807365714429e+00     2.85557786195693e+00  1.12710320002939e+00 -2.04068497121418e+00 
 H  3.88526119323034e+00  7.86555850851506e+00  7.85479389848035e+00    -2.89799622661599e+00 -1.92729009013962e+00  1.75839956655592e+00 
 O  7.54355201064230e+00  8.36794530383132e+00  2.93956822982991e+00    -6.70330278708576e-01  1.11399756376917e-02  8.57099681167323e-02 
 H  1.53095103404648e+00  4.33528453944600e+00  2.51220923211738e+00    -1.28634325150624e+00 -6.90783047184297e-01  2.70339777854838e+00 
 H  9.48687641265070e+00 -1.10722935315593e+00  5.46168752824854e+00     3.65119111405897e+00  2.25256036846467e+00  1.70939518636508e+00 
 O  5.05896000462736e+00  4.11324589600122e+00  6.18516989747380e+00     3.33320207464116e-01  8.40398880972448e-01 -3.04810764251809e-01 
 H  6.49171759015774e+00  4.36885564265188e+00  8.55122274167374e+00     1.71505769855194e+00 -3.83808233120957e-01 -6.32589636627454e-01 
 H  5.19903291630727e+00  1.12392615635658e+00  8.99269486102948e+00     3.06983891266713e+00 -1.38923578192104e+00  2.38361926721301e+00 
 O  1.30183730870731e+00  2.07655504668713e+00  6.76766542658089e+00     2.66656739857187e-01  7.35110876225550e-01  4.65395422916134e-01 
 H  2.41381249902135e+00  8.97735224052698e-01  4.76627090129420e+00    -1.05623506182728e+00  2.43721982596147e-01 -3.03321586381657e+00 
 H  5.13460653129575e+00  3.26136197585008e-01  3.68463774577978e+00     5.16983014407218e-01 -1.93575253363465e+00  3.69676929764225e+00 
 O  6.83672535057354e+00  8.03323751856924e+00  8.67849949085859e+00    -6.43869332440573e-01 -2.21189623507142e-01  3.03546686519484e-01 
 H  3.07872531475923e+00  6.50992279807519e+00  1.43827462039534e+00    -2.15337406520401e+00  2.76319940126932e+00 -4.36328282021172e-01 
 H  9.42290466161398e+00  1.97824263528619e+00  3.50704036429593e-01    -1.93399216858525e+00  4.51291050933960e+00 -3.00336451856093e+00 
 O  4.11469170199520e-01  6.25705101147009e+00  8.24648713350019e-01    -3.32871575737682e-01 -4.01922973019902e-01  2.14002926217891e-02 
 H  4.70718104792172e+00  3.57602655362850e+00  6.98052911475760e+00     5.31409773459871e+00  6.37013503897616e-01 -2.81780353706299e-01 
 H  6.33269956759241e+00  1.74903407790310e+00  1.68273944755328e+00     1.32282961001000e+00  2.20697117633756e+00  1.05800799260127e+00 
 O  6.69387467747183e+00 -6.85706346937539e-01  5.31239059619489e+00     7.42831170789130e-02 -1.19400321712821e+00 -4.80646530869344e-02 
 H  3.08300902143847e+00  7.16686690997772e-02  1.58561863807752e+00    -1.60164702866774e+00  4.17762929827632e-01  9.13416567896942e-02 
 H  3.65408793044845e+00  2.66013972163025e+00  1.97230723110276e+00    -3.39195779584242e+00 -5.56635094091680e-01  1.92414694011072e-01 
 O  3.21772221448241e+00  5.78589081482915e+00  4.81804193208898e+00    -1.12024740805535e-01 -2.02830182575906e-01  5.27417181287880e-01 
 H  1.25904042585661e+00  3.00162696296502e+00  2.11182723393110e+00    -7.81526728571755e-01  1.19897753824429e+00 -7.39635432357823e-01 
 H  3.31924834751619e+00  1.26903537368220e+00  3.86458050578921e+00    -2.43368538527531e+00 -1.38787468964847e+00  5.18924729016415e-01 
 O  4.34148477107705e+00  3.89284003718226e+00  3.92872390391575e+00    -7.90331173401984e-02 -4.62171831435745e-01 -4.11456685220040e-01 
 H  5.85064650824178e+00  5.27969745595838e+00  9.50706489427910e+00    -6.84792760881993e-01  1.31908387087815e+00  2.34522393404923e+00 
 H  7.29016503255456e+00  3.97954747928110e+00  1.61228295636401e+00     3.81668921307865e-01  1.76949446237862e+00 -1.58909059641760e+00 
 O  4.42679873887343e+00  8.42389037807594e+00  2.09917739820465e+00     7.52725057594760e-01  5.36903697123521e-01  7.15629180036331e-01 
 H  1.44921286070070e+00  7.75711636760207e+00  6.80523431169138e+00    -9.04153442285550e-01 -1.24555585298711e+00 -2.60208042293090e+00 
 H  2.72886222168845e+00  6.14758338700288e+00  5.56907529454777e+00     2.01506052484283e+00 -1.30398086724364e+00 -6.37153664134838e-01 
 O  4.68732688500565e+00  7.49495040486652e+00  7.58618629362792e+00     3.10218346696541e-01  5.87232138804432e-01 -2.07972193055960e-01 
 H  1.58962877347283e+00 -9.80681982537442e-01  3.00005965653954e-01     1.31776394531101e+00 -7.11046504688698e-01 -2.50659423339306e+00 
 H  4.89834867385561e+00  7.77016269128738e+00  1.48787273405431e+00     2.18137830521846e+00 -1.09314005396546e+00 -3.26272616295515e+00 
 O  4.41298611040353e+00  1.02835969520143e+01  7.49640527589300e+00     6.91788788793523e-02  4.74105134389996e-02 -1.55939409496104e-02 
 H -5.30857722465430e-01  1.07264721321595e+00 -2.01249251863029e+00     8.63694856861144e-02  1.70413301289787e+00 -1.92100530861216e+00 
 H  6.87858849922460e+00  8.01960452746393e+00  1.02512285244190e+00    -2.21019113640438e-01  2.47623938436140e+00 -1.75451017456307e-01 
 O  7.94154932090539e+00  3.64997150118213e+00 -9.05090404434384e-02     6.54595702285477e-01 -5.52358143361814e-01 -1.05465033104460e+00 
 H  9.63484314451895e-01  2.10403794663604e+00  3.97130002608217e+00    -3.70441338561835e+00 -1.08209226138486e+00 -5.59843816277681e-01 
 H  8.27139422652452e+00  9.08383375097130e+00  2.44454665769621e+00    -4.74379468188110e-01  1.59652452832367e+00  5.90666554419982e-01 
 O  8.17663261843791e+00  5.86694466142130e+00  6.83986864926367e+00     6.69387780302075e-01  2.14743406591089e-02  3.43147625046286e-01 
 H  3.87759422264365e+00  1.07126607697316e+01  6.73692638665898e+00    -3.05639204763889e+00  2.90256526177265e+00 -1.94991135431813e-01 
 H -1.56917416247519e-02  6.41806288248707e+00  3.75006803713075e+00    -3.12331925832139e+00  1.92878607238970e+00  3.71988790093738e-01 
 O  5.48236777219207e+00  4.81827664670698e+00  8.71078860551595e+00     4.84191789898987e-01  4.78581807434564e-01  3.33849999505030e-01 
 H  6.68614476507284e+00 -2.63900840436350e-01  4.37796420373579e+00     7.17678821186667e-01 -1.63481746043002e+00 -3.85560763572461e-01 
 H  6.63440945989887e+00  2.95271682529232e+00  2.94269172848052e+00    -1.42575952473759e+00 -1.81109564450083e+00 -2.39447509443152e+00 
 O  5.56365303138417e+00  1.32696716468945e+00  3.99499247050532e+00     5.44599503784299e-01  6.75960643994364e-03 -1.11073996936128e-01 
 H -1.02117912324416e+00  5.14832865774802e+00  4.01452610411662e+00    -7.55892807173266e-01 -6.54396980561583e-01  2.50986759631509e+00 
 H -2.97774248467470e-01  2.65931133822022e+00  2.61578946730263e+00     2.69633379760328e-01 -3.54503383529597e-01  1.76578031991202e-01 
 O  2.48213738513217e+00 -1.92525136771798e-01  7.00964139564872e-01     2.60839164277184e-01 -3.11474596678796e-01  4.05036559260476e-02 
 H  3.07235660729107e+00  2.96200879917748e+00  2.23503574789296e-01    -3.25811202544966e+00  7.60685470129258e-01 -1.39892992168471e-01 
 H  5.19957624483563e+00  4.95327069142656e-01  1.84406686001486e+00     4.14489992858601e+00  7.94155438849132e-01  4.35929489941873e+00 
 O  5.96338067117788e+00  6.17525795675273e+00  3.36100885011664e+00    -3.77903597722471e-01  3.89063524282096e-01  1.65892916598155e-02 
 H  1.03646137698719e+01  6.46587299505914e-02  3.48844023135269e+00     3.06053282759567e-01 -3.84843383931233e-01  2.94989929130462e+00 
 H  1.93862159115799e+00  5.20962579567057e+00  7.34904305811714e+00    -1.56480781253786e+00 -1.68281484088193e+00  1.38715955899941e+00 
 O  1.27183397379916e+00  4.04051996257075e+00  1.66348858909558e+00    -6.73075490021719e-01  2.15339673979222e-01  2.85979314421114e-01 
 H  1.26512022553155e+00  1.32941165143682e+00  6.22321044858368e+00     2.01933351840895e+00  1.55902350133126e-01 -1.54241498681304e+00 
 H  4.92493529428150e+00  2.04592195835959e+00  4.19727871033755e+00     1.55165456734286e+00  1.46867566529221e+00  2.24487392305721e+00 
 O  7.58792940217825e+00  3.25093972885720e+00  5.40867368125207e+00    -2.96915246045945e-01 -1.07058754396311e-01  1.59833544699058e-01 
 H  1.55910225589010e+00  6.14556393835835e-01  8.64694431680080e-01    -1.55506744811764e+00  2.35195292570806e+00  3.54077729454203e+00 
 H  2.26794331758822e+00  5.55834832465287e+00  4.25594275585644e+00     8.98627825833017e-01  1.33640634070064e+00  4.33890194550340e-01 
 O  6.82218690555716e+00  3.28519794386158e+00  2.04415567739502e+00    -4.76658550002380e-01  5.73534497447278e-01 -4.43185395482258e-01 
 H  3.78218427136281e+00  3.90617094306832e+00  4.75301814356463e+00     2.90594996058781e+00  8.01804423833285e-01  7.03941677757982e-01 
 H  6.63000275542418e+00  6.95413203965849e+00  3.24656054092916e+00     9.71443008308344e-01 -5.85237223011541e-01 -4.51165077001236e-01 
