   96
 8.60913090000000e+00  8.60913090000000e+00  8.60913090000000e+00
 O  1.72968905291134e+00  7.25934772304866e+00  7.05488489083608e+00    -3.46468259693150e-01 -2.50619680014989e-01  2.80088319558582e-01
 H  1.05726774318056e+00  5.35324428496542e+00  4.41032849376378e-01    -1.06519296564310e+00 -8.49785912586769e-01  2.40792972313034e+00
 H  2.36158710230509e+00  5.83590991840370e+00  7.21070211377028e+00     1.07551076649759e-01 -2.25674666790177e+00 -8.84255030768661e-01
 O  9.37174376018416e+00  7.59832069781972e+00  4.79886869651871e+00     9.69620729482348e-02 -8.29903974103292e-01 -5.40964552589243e-01
 H  2.48335797589794e+00  4.20039063465349e+00  7.00390888734015e+00     1.74960956227794e-02  1.79346754578420e+00  5.92599583897465e-01
 H  9.06660645955817e+00  6.06454222847745e+00  6.31633528617875e+00     5.87841840342500e-01  2.26782043060439e+00  4.29368990651554e-01
 O  2.80592491919186e+00  8.38510742107682e+00  3.21009557527077e+00     5.44818289477552e-01  1.42344887546005e-02 -2.57782330072989e-02
 H -1.76965112650436e+00  9.46135485707492e-01  6.83133763107635e+00    -6.57808459251406e-01  8.05732038253986e-02 -2.55680260235287e+00
 H  5.03472957722862e+00  7.47983054793237e+00  8.58412074699126e+00     3.34770018379832e-01  1.74104039563930e+00 -1.23276105323377e+00
 O  1.56569986537280e-01  2.19625942339980e+00  3.23732460657199e+00    -5.74851017375239e-01  4.71324748358585e-02  5.37467401944781e-01
 H  4.70286149177105e+00  4.95358620055763e+00  9.97971412248626e+00     3.32642106789560e+00  1.26135948809114e+00  5.95286926222373e-01
 H  3.97552855893294e+00  9.14393875039912e+00  7.61592671440265e+00     2.26342442397175e+00  4.90649006163770e-01  1.15269652948408e+00
 O  2.87167574983351e+00  5.02693787652753e+00  7.37107904984740e+00    -4.59703175620975e-01  4.22799828324883e-01 -4.91774067959270e-01
 H  3.52358816067581e+00  4.50711554047941e+00  3.52852678200526e+00    -1.52150080440736e-01 -1.30241366079502e+00 -3.59389170862620e+00
 H -5.04079760838868e-01  6.74633798148736e+00  4.79214785364924e-01    -1.30902834384704e+00 -3.40149719029723e+00  2.81824567335276e+00
 O  7.48216993739082e+00  1.82141071565323e+00  7.37880500615797e+00    -3.75905309441843e-01  2.33696464120017e-01 -4.46200739474075e-01
 H -3.75890217273113e-01  4.27702857195596e+00  5.56488327613978e-01    -1.09926139051875e+00 -3.31593773246010e-01  1.65978940691311e+00
 H  5.36495494812048e+00  3.12721707691511e+00  6.29210447563912e+00     1.07303923183704e+00 -9.06743907115922e-01 -2.74492512340299e-01
 O -5.01621831336301e-01  5.26864272792907e+00  3.28303942437443e+00     8.08696315698759e-02  7.57572353871428e-01 -9.23546196185981e-02
 H  6.21844812869924e+00  4.39636547022239e-01  4.82911045269209e+00    -2.16067338762794e+00 -1.42627012727928e+00 -2.72195454441676e+00
 H  4.84524875860882e+00  5.69601906739058e+00  2.55131720880109e+00    -1.81496991491671e+00  2.02438954037747e+00 -1.90492210532411e+00
 O  4.05648612986918e+00  5.40740192994171e+00  1.95534108796858e+00    -8.32738814877009e-01 -3.54521979831471e-01  9.92847242868376e-01
 H -1.02576109749568e+00  4.20255130116205e+00  5.64546914410577e+00    -1.85516100376019e+00 -1.64788183798277e-01  2.12544795454940e+00
 H  5.68642759567386e+00  6.55123850452836e+00  4.60302379104658e+00     8.90740684564708e-01  3.06451139133951e-01 -1.02038243923882e-01
 O  5.73391056840403e+00  1.01515163967911e+00  1.19951922712944e+00     4.66073816733118e-01 -3.46432989626646e-01  4.29798315890261e-01
 H  4.45388288822840e+00  2.78202545288408e+00  3.80928354169089e+00     4.40495735923257e-01  8.89123296827769e-01  2.23580654663924e+00
 H  2.17412468492191e+00  7.94943655253594e+00  4.03960553387247e+00     3.71099396720641e-01  1.11411524736991e+00 -7.24645611632447e-01
 O  2.91527650329053e+00  1.68920987715290e+00  4.58540926499682e+00    -4.67768379825370e-02  1.28512804762966e-01  8.02314397946523e-01
 H  6.62161372553413e+00  7.12834215103561e+00  8.65828786466574e+00     6.91233493122268e-01  1.06895291488265e+00  2.53496790818450e+00
 H  7.15977906874161e+00  6.13954764139007e+00  6.57159540523167e+00     2.71047366896479e+00  2.67071392289731e+00  2.82825944768047e+00
 O  3.36507597359161e+00  2.60855521943902e+00  1.18258922704332e+00    -5.13578695595469e-01  7.26663199115597e-02 -6.67043703107225e-01
 H  7.22804311090640e+00  3.51623647629741e+00  4.32897456037747e+00    -4.53009716385325e+00  1.46468189416725e-01 -1.96737839342108e+00
 H  8.69838507633885e+00  3.63966867730691e+00 -8.88638434683190e-01     1.31837611455658e+00  7.34882249952939e-02  6.06148960580445e-01
 O  9.17976352478396e+00  1.24653114995095e+00  1.05398575649106e+00    -3.25361593928743e-01  1.09890129999526e+00  3.30216824845427e-02
 H  9.87681198417602e+00  8.41909211755171e+00  5.16877219940743e+00    -1.25996677254168e+00 -1.36296951979458e+00  2.72409896838995e+00
 H  3.64456822131287e+00  7.22751886494866e+00  8.04556059910612e+00     1.50314280613682e+00 -1.06044852430231e+00 -5.36449929022179e-01
 O  7.82115642947989e+00  8.25302151725908e+00  2.74278881116463e+00    -3.93031849617827e-01 -9.83853490590222e-02 -1.43315665840296e-01
 H  9.85759863389024e-01  3.70225362117762e+00  9.23962667866979e-01    -9.18446575945868e-01 -3.53622050257093e+00 -3.66744266698276e+00
 H  8.59568809452496e+00 -1.58722344127498e+00  5.39998923340638e+00     1.33573881717872e+00 -6.77940541175277e-01 -2.37072269336684e+00
 O  5.01822750861102e+00  4.09709941711918e+00  6.29435894411537e+00     4.09374281267059e-01  1.08628125518290e+00 -2.35665693184628e-01
 H  4.99814971341260e+00  4.33190405081797e+00  7.26586782208436e+00    -2.38722600538150e+00  6.37645577073555e-01 -1.36462189265931e+00
 H  6.79896952667458e+00  2.36899025097370e+00  7.74142113213157e+00     1.41315151258323e+00  1.00652175520174e+00 -5.81536228501440e-02
 O  1.30127534236335e+00  1.32131886765241e+00  6.72492393435686e+00    -1.16918766389533e-01 -4.10291778178388e-01  3.19135271158192e-01
 H  3.82269468483253e+00  1.80424922261344e+00  5.06800116054924e+00     1.31984555344089e+00 -2.90616253125183e-01  2.58283719255156e+00
 H  5.33746339188627e+00  8.99608276651669e-01  3.20562561428130e+00     6.87602316032114e-01  6.87412299698426e-02  2.15821930581563e-01
 O  7.17086168654780e+00  7.90853747982695e+00  8.48016477678790e+00     8.05299199871514e-02  3.09930372356526e-01 -8.51870698771662e-03
 H  3.27071264664327e+00  5.91323211949663e+00  1.19581445713306e+00     1.30544820379397e+00  7.94835416143310e-01 -3.03091799486730e-01
 H  9.12090380140008e+00  2.66367468257978e+00  2.38373113148659e+00    -2.05225211485373e+00  5.72793182505654e-01 -3.35369073460975e+00
 O  3.49609817327083e-01  6.01218645167501e+00  5.76810188244386e-01    -4.09186124558485e-01 -5.60661835630327e-02 -5.02184893814523e-01
 H  5.36303017088309e+00  4.85608486759238e+00  5.95598327087206e+00     9.28860725218367e-01  3.02681782013226e+00 -2.02386243589858e+00
 H  5.35718501503228e+00  2.39874994249340e-01  1.53313052360258e+00    -5.49546772579296e-01 -2.54410925124463e+00  5.54527748360946e+00
 O  6.98687669948940e+00  2.13567982317981e-01  5.59302876288931e+00     3.08579453627617e-01 -6.64186751415995e-01 -1.80587733775612e-01
 H  3.48787620336574e+00 -5.86431780209614e-01  1.84585704970073e+00     7.53186361965698e-01  1.08751977387084e+00 -2.18391376109024e+00
 H  2.38887040514428e+00  2.29902158712805e+00  1.65704298891138e+00    -6.71365410173448e-01  1.24595562809034e-01 -3.25812074630110e+00
 O  3.32367392273051e+00  5.97523904663745e+00  4.75749515408103e+00     9.07603355331060e-02 -7.00357853315404e-02  8.32949396882610e-01
 H  1.27375769388950e+00  4.72086117606587e+00  2.16264874659179e+00    -1.65170407246305e+00  9.80669459979191e-01 -2.43045749456494e+00
 H  2.83678020472548e+00  1.34218757523492e+00  3.70134475935967e+00    -3.12137851406985e+00  1.14213194357675e+00  2.65234242954366e-01
 O  4.19582335863811e+00  3.77608884425883e+00  3.85396133859359e+00    -2.28655855992230e-01 -5.98036233275032e-01  5.87781576921677e-01
 H  6.35393746693953e+00  4.93065157913161e+00  9.41520688405859e+00     1.77043753582723e+00 -1.08724997817769e+00  1.06876040784844e+00
 H  6.41019381309315e+00  1.82005539846388e+00  1.77730919713477e+00     1.98906136259776e+00 -1.09951474308969e+00 -8.22595076174430e-01
 O  4.52442607649034e+00  8.06844771881829e+00  2.29878807944995e+00     9.69805887927242e-01 -4.14618602233174e-03  8.72898886980684e-01
 H  1.68482483485191e+00  8.45515778480391e+00  8.66789327637699e+00    -1.14673994959775e+00  4.69957836027247e+00  3.69131959814785e+00
 H  3.53840253980783e+00  6.82494071776259e+00  4.76336350291765e+00     1.70005005500783e+00 -8.96613410920767e-01 -1.43302792924628e+00
 O  4.61296810146867e+00  7.62229706522604e+00  7.77088010910584e+00    -3.21501296215392e-02  2.58225290065821e-02 -2.50542851411910e-01
 H  2.04229931363136e+00 -4.08761109631556e-01  2.71172838858900e+00     3.03679137912427e+00 -3.26027650263816e+00 -1.03610593092582e+00
 H  4.16287255068444e+00  8.27557347675237e+00  3.20714431590229e+00     7.23805576264913e-01 -7.69488095893954e-01  1.21801196906797e+00
 O  4.50074838438695e+00  1.00453825076537e+01  7.19269628985896e+00    -3.90751031246865e-01 -2.36935616342228e-02 -4.44580835902807e-01
 H  4.94313419881136e-01  1.55671153343663e+00  6.16964237962669e-02    -1.26603641803799e+00 -2.65611658964195e-01  2.51867626406750e+00
 H  7.28872067731715e+00  8.99439023326942e+00 -2.11000965722955e-01    -7.88739169935238e-01 -1.24423375637899e+00 -2.21289387240101e+00
 O  7.86997971710696e+00  3.70050550033662e+00 -1.18315820537486e-01     1.37613194170087e+00 -3.17455191922017e-01 -8.40422012092409e-01
 H  5.82898772220875e-01  2.44140443328427e+00  4.05746611599317e+00     2.46159748068934e-01 -5.40205054836931e-01  5.30371909988486e-01
 H  7.07758282804588e+00  8.86860127798904e+00  2.93903021969812e+00    -1.99863569969493e+00 -2.64633783440335e+00 -6.85034763179695e-01
 O  8.21972194874491e+00  6.01546743215515e+00  6.83329734966622e+00     2.82309976350861e-01 -1.22146575025149e-01  6.17486091827043e-01
 H  4.32297766905853e+00  1.09467498431215e+01  7.44675019493607e+00    -1.20760904083229e-01 -4.89567927442652e-01  5.49244544408789e-01
 H -1.41275689502475e+00  5.26475888380809e+00  3.60179188552722e+00    -5.13884165603045e-01  1.23732470310792e-01 -8.22295607638928e-01
 O  5.59749926491069e+00  4.92744019325395e+00  8.68413152615311e+00     7.11236392010283e-01  3.13567894898778e-01 -5.95326505954652e-01
 H  7.87881850756653e+00  6.64682234079213e-01  5.73184115513829e+00     8.31509454473985e-01 -5.54445546498585e+00 -2.51172081602388e+00
 H  6.43459850328494e+00  3.16888694078171e+00  1.11929473936200e+00    -2.52997635666212e+00 -1.69610125820686e+00 -1.70876263710878e+00
 O  5.43413096516206e+00  1.49222583324982e+00  4.05946544689946e+00     1.07375207038328e+00 -2.75276315496705e-01 -2.32997543351691e-01
 H  1.82883011374180e-01  5.44147743160849e+00  3.97127972600360e+00    -1.50139581014641e-02 -1.54999310651581e+00 -2.16964145014663e+00
 H -4.11106870868983e-01  1.50677967668220e+00  3.51467025917544e+00    -2.57621796254259e+00 -3.77944441132418e+00 -1.29567263839070e+00
 O  2.54810761306188e+00 -6.01404593563833e-02  5.41547809958751e-01     8.23502183220964e-01 -1.17184820853735e-01 -1.02588473465334e-01
 H  4.30729984238267e+00  2.91046420738518e+00  1.43354732740996e+00    -9.41295005854859e-01  2.16557089554347e+00 -4.21174254349062e-01
 H  3.62836235502492e+00  3.16535650639067e+00  5.06913524878970e-01    -3.38778135468574e+00  1.73160494545508e+00  1.11618583065275e-01
 O  5.80940707091372e+00  6.23318211142229e+00  3.62913855863258e+00     2.07045315914685e-02  1.62762386235853e-01  5.11948423670873e-01
 H  7.57600902337558e+00 -5.41810573763772e-01  1.81152332318785e+00     2.63814729097062e-01  2.25985226036843e+00 -2.10417123648785e+00
 H  1.61013994012251e+00  8.29100440178139e+00  6.87976304471596e+00     1.75702833912116e+00  1.72024724780238e+00  3.40946013480952e-01
 O  1.50199414565754e+00  4.06449526441502e+00  1.67055993778289e+00    -1.27207273173540e-01 -4.17468951693906e-01  1.11306039673914e+00
 H  4.54265596958284e-01  1.86894669280694e+00  6.29296875174605e+00     4.59401638117992e-01  1.77712430659917e+00 -2.54259308430581e-01
 H  6.43685762778760e+00  1.92892215234117e+00  3.64067069655285e+00    -9.66326125085811e-01  5.22070516285576e+00 -3.19873210824038e+00
 O  7.51800296044719e+00  3.37034606125690e+00  5.23606004043129e+00    -5.04828354025228e-01  2.56698801268207e-01 -2.48643231445385e-01
 H  2.11016320175634e+00  9.43681746515825e-01  9.46906044590386e-01     1.87833756158181e+00 -1.77314545798076e+00 -3.02455392935962e-01
 H  2.64378379447723e+00  6.09074698227604e+00  5.52983734651263e+00     3.44044272059099e-01 -3.76085927836858e-02 -2.32329371649504e+00
 O  6.60038113091955e+00  2.92226891755595e+00  2.04298771254163e+00    -1.20341392045490e+00  2.76203860060852e-01 -7.35936284421130e-01
 H  4.19421935731431e+00  4.08606465947590e+00  4.69183582350784e+00     8.12812337491906e-01 -2.26388955387035e+00  1.52955800895189e-01
 H  6.30060893926404e+00  7.04866688386763e+00  3.63237694274819e+00    -2.88961119531106e+00  3.80085380075410e-03  1.13442706580925e+00
