   96
 8.60913  8.60913  8.60913
 O  1.55640  7.08436  7.17927     0.02719 -0.38054  0.16778
 H  8.41323  6.94102  1.63655    -2.03291 -1.05986  0.71049
 H  2.56774  5.71489  7.77456     1.39326  0.91154 -2.95719
 O  1.05185  7.95069  5.27041     0.38183 -1.32161 -0.04855
 H  3.15965  4.23729  7.90928    -0.58060 -0.24519 -1.81275
 H  7.92724  5.30197  6.02915    -0.30382 -0.90997 -1.60395
 O  2.26393  7.72686  2.94349     0.44531 -1.11682 -0.60254
 H  0.59078  0.39441  0.38028     2.80467  1.05062 -0.55928
 H  3.82364  7.39349  6.85272     1.72307  0.58272  3.31365
 O  0.48992  2.38159  2.72964     0.27308 -0.03621 -0.28143
 H  4.87507  5.08007  8.37754     2.93925 -0.76251  1.53253
 H  4.61626  0.90495  7.38879     2.87589  3.71817 -1.49222
 O  3.18958  4.94384  7.25494    -0.17348  0.35832 -0.02654
 H  4.19562  3.25025  4.73090     0.18153 -1.18254 -0.05141
 H  7.86430  5.65064  0.19078    -4.12019 -1.68780 -0.83346
 O  7.82509  1.95828  6.95032     0.22325  0.26665 -0.52866
 H  7.37715  3.71396  0.88191     2.00851 -3.01211 -1.46498
 H  5.04646  3.17233  6.47131    -4.88370  1.09575  3.18068
 O  8.41284  5.01471  3.62718     0.77038  0.07111 -0.01078
 H  0.16113  8.20448  5.58427    -2.71027  2.73066 -0.63460
 H  4.04819  4.49882  1.20198    -1.30468  0.40836 -2.58639
 O  3.98912  5.47495  1.87268    -0.17950  0.03726  0.76138
 H  6.58879  3.86802  5.81243    -0.26871  1.47904  1.85683
 H  5.38237  6.75708  3.66551     0.70821 -1.86919  3.46602
 O  5.55985  1.15723  1.05950     0.04223  0.22190  0.41765
 H  5.24255  3.94166  3.63411     0.74672 -1.28147 -0.40892
 H  2.41614  6.80376  3.27170     2.34556  2.49696 -2.70863
 O  2.50064  1.21946  4.38257     0.01294 -0.18258  0.24444
 H  7.49223  7.92220  7.95256    -1.38067 -1.59202 -1.18492
 H  7.38013  6.44216  6.80398     0.69684  0.09942  1.13822
 O  3.55674  2.83298  1.11899    -0.55633 -0.00186 -0.51858
 H  7.77755  2.96390  6.23582     1.85414  3.62161 -1.67523
 H  0.14783  3.73208  0.72365     1.22239 -1.07426  1.08852
 O  0.21161  1.23764  0.60941    -0.62500  0.35434  0.13399
 H  1.52862  7.08151  5.04375     0.59979 -3.59915  2.31457
 H  5.37336  7.09163  7.26197    -2.02326  0.41875  3.34967
 O  7.81024  8.24937  3.04477     0.11950  0.29138  0.19893
 H  1.41266  3.85984  2.33364    -2.70612 -1.25080 -1.78533
 H  1.62278  0.67070  6.18314    -2.21710  6.11153  0.16944
 O  5.38382  4.06277  6.18289     0.57695  0.35772 -0.88820
 H  5.58819  4.49103  7.01123     0.53306  4.08748  0.55487
 H  7.30299  1.22017  7.08254     0.13727 -1.23653 -4.51619
 O  1.25922  1.46538  6.71096     0.61911 -0.21978  0.50625
 H  2.93739  1.11361  5.16738     1.49712  1.99919  0.50054
 H  4.60936  0.40791  3.53479    -1.02223 -1.31758 -0.73244
 O  6.97960  7.97852  0.14164     0.21288 -0.02516  0.05718
 H  3.01004  5.65816  1.77533    -3.53498 -0.25068 -2.21876
 H  0.40548  1.59747  1.61419    -0.46709  1.94836 -1.72024
 O  0.03264  6.20456  0.75278    -0.51902 -0.11612  0.61173
 H  4.19509  1.72849  6.46209    -1.94871  0.31025  0.80426
 H  6.25615  0.98064  0.34305    -1.44466  2.96355 -0.35913
 O  6.72213  0.27805  5.61113    -0.09897 -0.69129  0.00852
 H  2.77256  8.37151  1.22526    -2.04023 -0.53210  2.71240
 H  4.16115  1.91303  0.99763    -0.83277 -1.34534  1.89492
 O  3.29788  5.92432  4.84062    -0.09725  0.35562  0.34205
 H  2.11298  4.56463  0.61076     1.82838  1.65888 -0.04784
 H  2.93177  1.49756  3.59194     0.08752  2.76308  1.80144
 O  4.23554  3.86212  3.95334     0.42261 -0.76973  0.34545
 H  5.99646  5.43111  0.64072     0.62572  1.80532  2.28764
 H  6.14021  1.91651  2.24279    -0.83543  0.05028  0.89285
 O  4.39312  8.25230  2.15744     0.27811 -0.17319  0.84896
 H  2.08246  7.89703  6.96001    -0.93507 -0.23580  0.50668
 H  4.02423  5.40199  5.15167    -2.00576 -3.41555 -2.35763
 O  4.58290  7.54193  7.45519    -0.04352  0.58639 -0.91579
 H  1.85361  8.09713  3.68276     3.04379  1.12050 -3.18162
 H  4.29372  7.14278  2.10540    -3.64460 -0.28845  0.40295
 O  4.17939  1.84902  7.45737    -0.20578 -0.33704  0.03124
 H  8.03578  1.39988  1.09711    -1.33425 -0.20871  1.45777
 H  7.55786  8.55567  0.68523     0.73868 -3.26961  0.05545
 O  8.01396  3.82059  0.15581     0.86633 -1.05503 -0.15831
 H  1.01358  2.46446  3.52124    -2.34462 -2.06697 -1.32975
 H  7.15798  0.34085  3.25938     2.93807 -0.24132  2.21619
 O  8.31277  5.92583  6.81273    -0.03924 -0.16586  0.28967
 H  3.78332  2.51715  8.13093    -0.99357  2.22154 -0.04922
 H  7.50755  5.28665  3.57749    -0.76908 -0.24250  1.50561
 O  5.60889  4.59619  0.29732     0.19062  0.28093 -0.46026
 H  7.28554  1.10213  5.25628     0.66955 -0.51104 -3.81161
 H  6.12537  3.19770  3.15622    -4.13846  0.15736 -5.01152
 O  5.03012  1.24080  4.01812     0.16011 -0.38687  0.52848
 H  0.27507  5.35849  2.87478    -0.81517  0.37979  0.31370
 H  8.27696  2.65645  3.13794    -2.22716 -2.50684  3.01047
 O  2.42492  0.41786  0.52667     0.38464  0.95920  0.35197
 H  2.80628  2.38729  1.56757     0.57570  2.30102 -1.48160
 H  4.78480  8.43945  1.30125    -2.64716  0.92050  0.06584
 O  6.21185  6.42850  3.26671    -1.04790  0.26106 -0.00336
 H  8.20798  7.94130  3.79268    -1.93150  3.01183 -1.28869
 H  1.02615  7.38817  7.93985     2.66920 -0.66815  1.54084
 O  1.73058  4.24137  1.52623    -0.02042  0.01786  0.33284
 H  0.46411  1.96887  6.49200    -0.95694 -1.44373 -3.71729
 H  6.10023  0.79492  5.19825     2.98574  0.67374  2.91397
 O  7.56508  3.70781  5.41104    -0.19866  1.22773 -0.85022
 H  3.03759  1.23877  0.03428    -0.15628  1.48514 -0.23830
 H  2.61385  5.55667  5.72447     1.81551 -1.26548  2.03437
 O  6.60274  2.85424  2.36531    -0.87595  0.31578 -0.53765
 H  3.99689  4.76457  3.33654    -0.00459  0.20385  1.24678
 H  7.06747  6.62110  2.85106    -1.73013  1.91941 -2.53789
