   96
 8.60913090000000e+00  8.60913090000000e+00  8.60913090000000e+00
 O  1.72617429118094e+00  7.56595207733584e+00  7.35689572306051e+00    -1.88761759246716e-01 -4.68871959757113e-01 -8.90318468916948e-02
 H  6.84855560525140e-01  6.83638009016972e+00 -3.46661947517718e-01     2.82100117493711e+00 -4.43691011179956e-01 -2.43572751417301e-01
 H  1.91096960979807e+00  5.01931017319484e+00  7.05603125138313e+00     1.58012246794714e+00 -5.53299117578783e-01  7.75300453599695e-01
 O  1.01606668752262e+01  8.59843855003688e+00  5.21453817796727e+00     5.33861094552134e-01  5.52632910341584e-01 -2.94191371679009e-01
 H  3.02049871482136e+00  4.86267837268115e+00  8.35230880269961e+00     1.44768891395706e-01  2.10853869916831e+00 -4.13130316437175e+00
 H  7.58682835311756e+00  4.58830078851367e+00  4.67075420909778e+00     4.98030024452973e-01  3.65613431625239e-01  2.39580702986872e-01
 O  2.52584169210105e+00  7.60138935547200e+00  3.25102390295552e+00     4.49750697055090e-01 -5.73124138395140e-01 -4.65971346463976e-01
 H  1.40888614584618e+00  2.06115075606178e+00  8.04654250920996e+00     1.93460964807010e+00 -6.96071742059313e-02 -3.00895291094259e+00
 H  5.11360728987612e+00  7.69047164444268e+00  6.41077173204441e+00    -2.17509943688472e+00 -2.62017787384596e+00  1.86146157864604e+00
 O  7.46026770012968e-01  2.31201512881682e+00  3.18539708220017e+00    -4.46443054487599e-01  1.15120228041887e-01  7.19476771519869e-01
 H  5.13696572908674e+00  3.81513896341566e+00  7.53419027675761e+00     3.08231067331661e+00  4.13624839563237e-01 -5.76058370530881e-01
 H  3.84528258355141e+00  1.03369004600664e+01  6.90238863745595e+00    -2.34588263017125e-01  4.87174493224601e-02 -1.76184456743740e-02
 O  2.54279019701051e+00  4.63165527634541e+00  7.60550154928805e+00    -1.66644757521107e-01  7.64372306100415e-02  9.97758473111098e-01
 H  4.07738973878651e+00  4.93551176598312e+00  2.43048816307210e+00    -9.38499691652620e-01 -1.37859755149093e+00 -1.01184318554962e+00
 H  6.23393135526062e-01  6.92607161550426e+00  1.18051714205139e+00    -3.69120086796905e+00  1.42626075626634e+00  2.01198014788047e+00
 O  7.39954492061341e+00  2.34487677410722e+00  7.16736205287564e+00    -6.47375450117875e-01  2.84177628047101e-01 -4.32789606641196e-01
 H -8.07727544043917e-01  3.34585957037206e+00  6.68648971771271e-01    -1.21092686194509e+00  2.49065510026838e+00  2.11663926859123e+00
 H  5.11934810565823e+00  3.21736640897399e+00  5.01930754795301e+00     2.46634971912751e+00 -1.67158011392925e+00 -2.59852770427800e+00
 O -6.81574330669287e-01  5.08026402783655e+00  3.31001318619545e+00    -5.54119618336180e-01  3.25812947747192e-01 -5.08079721796323e-01
 H  7.99669234055043e+00 -2.62334112303118e-01  5.32378580818613e+00     2.62503044511837e+00  1.95536964346957e-01  1.89895332586409e+00
 H  4.74283668351817e+00  8.35938143011333e+00  2.91715409891165e+00     3.29927100441121e+00  3.24235244744628e+00  1.55847134439723e+00
 O  4.10338282871216e+00  5.79053418672948e+00  6.43661051443589e-01     4.07173621831070e-01 -4.46654561434553e-01 -8.26003704948415e-01
 H -6.69723049206593e-01  2.90530595498753e+00  6.38264951897255e+00    -1.90777556519183e+00  2.33002011896668e+00 -2.56209160596955e+00
 H  7.23746880531620e+00  6.30377055765448e+00  6.53302289662033e+00    -1.67158852666288e+00  6.61556253396215e-01  9.82929242490316e-01
 O  5.93126487059272e+00  1.05773098891178e+00  8.54122266618708e-01    -3.34620077090329e-01  6.08130286094163e-01  7.91654726461595e-01
 H  4.13534338066468e+00  4.06195866960516e+00  4.06332090805053e+00     1.59005116718915e+00 -3.63951729687648e+00  2.78270802505673e+00
 H  2.54434321881823e+00  8.24714612078545e+00  2.53001133009720e+00     2.42757767817175e+00 -1.51810782735591e+00 -5.54998799297276e+00
 O  2.90372245653241e+00  1.91521296319268e+00  4.41666786237570e+00     2.21341815669788e-01  3.76395767033951e-01  1.34208579268454e-01
 H  7.29908072510395e+00  6.46282893320019e+00  9.18111191719244e+00    -1.28116571190439e+00  1.48458510097547e+00 -2.19476795747860e+00
 H  9.29311391778247e+00  6.03656812488719e+00  6.37932457650389e+00     9.86930440885881e-01  1.09001802160248e+00  1.88033754424953e-01
 O  3.42232984307448e+00  2.78846191946674e+00  1.42939357449811e+00    -5.66031799734222e-01  3.09751785096769e-01  7.26788562440687e-02
 H  8.72120180084867e+00  3.72276715701324e+00  4.76675297698643e+00    -8.54605767591834e-02 -4.54483984297832e-01  1.70779441160722e+00
 H  6.60970609290008e+00  4.85040301341975e+00  1.95197339166735e-01    -2.31347425089375e+00 -9.14342656643721e-01 -1.33361707210329e+00
 O  8.76700390131116e+00  6.61930767638219e-01  9.19402297400736e-01    -5.73596615542201e-01 -8.64147760106349e-01 -1.16440396799554e-01
 H  1.06720645292503e+01  9.44652434519651e+00  5.18035079784898e+00     3.83127627387996e+00 -2.72156523560719e+00  1.20013898981806e-01
 H  4.77386075915579e+00  7.49400442053906e+00  7.89506133949747e+00    -4.50148932381309e-01  4.36335596059965e+00 -1.84274642403132e+00
 O  8.22233316124174e+00  7.52519263698564e+00  3.33654755692900e+00     7.76021872895819e-01  1.55543786211941e-01  9.44388745366521e-01
 H  1.58105386042010e+00  3.67794183559273e+00  1.39924554691024e+00    -3.04797514726946e+00 -3.32401325652920e-01  4.89130314686603e-04
 H  1.03197805729770e+01 -3.70569805923249e-01  6.08802777437690e+00    -1.98025757045353e+00  3.38449807193951e+00  1.53600112526076e+00
 O  4.47780765629870e+00  3.70754257459645e+00  5.53095831577035e+00    -3.47557785937187e-01 -3.69096196166682e-01 -5.82575114882080e-01
 H  4.68985341153918e+00  4.46300572285571e+00  8.72217806454337e+00    -3.19594875048640e+00 -1.00490408873210e+00  1.52618987620776e+00
 H  7.60424878935660e+00  1.50808311964659e+00  6.72581646560866e+00    -6.05361893575419e-01 -1.22061084311503e+00 -2.25580112648035e+00
 O  2.09844493589932e+00  2.16640728132419e+00  7.31666551141141e+00     1.18047394086074e-01 -1.43668845386160e-01  6.90730215857579e-02
 H  1.19624135653436e+00  1.67191231413728e+00  3.69480202957708e+00    -3.92584558564477e-01  2.90037256039777e+00  6.79994204400607e-01
 H  4.52702010241287e+00  1.12636697482409e+00  3.64262188983401e+00    -4.83175875604394e-01 -5.33646670806481e+00 -1.48268911678275e-01
 O  6.66000388649801e+00  7.23679078750249e+00  9.40610714888398e+00     8.93513454695270e-02 -1.34900240666974e+00  5.88297782409141e-01
 H  3.28047712317600e+00  5.83015396500538e+00  1.45044473153989e+00     2.90975881991062e+00  2.81481611619896e-03 -4.69795744142204e-01
 H  6.90622165701769e+00  2.96936216575811e+00 -5.93774182995099e-01    -2.05865738076952e-01 -1.34867337222778e+00 -1.97344204807137e+00
 O  3.67097222965274e-01  6.43604100082316e+00  4.78809962191635e-01    -3.78361205212062e-01 -5.79610986838644e-01  2.98318384106230e-01
 H  3.70132539834102e+00  3.16286518107826e+00  5.15411971750867e+00    -2.76855792407929e+00  1.18094797668004e-01  2.56650537665803e+00
 H  5.22014960652302e+00  1.28276482117255e+00  1.57284071768487e-01     6.64529229855726e-02  3.86979242185870e+00 -1.89695026827043e+00
 O  7.28822008042834e+00  4.32851713221156e-01  5.63708902476915e+00     1.32325003687716e+00 -1.74627042939770e-01 -1.65117186312814e-02
 H  3.26879995864538e+00 -5.53930121755558e-02  1.01599675869015e+00    -2.11138878365112e+00 -4.35913654393243e-01  8.60233191945368e-01
 H  3.12209016446548e+00  1.86666780555966e+00  1.55789930501382e+00     2.08892116205479e+00  5.96161939959015e-01  2.50139099157797e+00
 O  2.77434266462708e+00  5.53379697818344e+00  4.90924996330938e+00    -4.78886565785210e-01 -5.29195937422921e-01 -4.06362731109695e-01
 H  1.67826640667391e+00  5.04896431561702e+00  7.00287910408071e-01     1.02737686580369e+00  2.79594574991478e+00  2.07125766697868e+00
 H  3.17765371828394e+00  1.26958574903740e+00  3.78736590859205e+00     1.35201462095243e+00  2.36615773997573e-01 -5.85399331058499e-01
 O  4.39691169178216e+00  4.19962756706493e+00  3.14382407769371e+00     7.84301625829459e-02  5.96344328619808e-01 -5.33654648856112e-01
 H  4.55515460086975e+00  3.04083030136810e+00  9.28430535195783e+00    -8.38861034913099e-01  4.91149541255174e+00 -3.26472565226029e-01
 H  6.61125870829230e+00  2.36226201992852e+00  3.65016498846797e+00    -8.29072071526441e-01 -4.22477678843034e+00 -7.32818753476908e-01
 O  4.41163419698804e+00  8.04983492618360e+00  1.92075756825422e+00     2.58521220253690e-01  5.42441757252446e-02  1.26585777353060e-01
 H  2.50821670947864e+00  8.09207876066233e+00  7.49319874548358e+00    -1.85931984734129e+00  1.82328440730942e+00 -2.79038071953105e+00
 H  2.93294099993994e+00  5.12124089099532e+00  4.10694773124479e+00     1.44651235489677e+00  1.75929642827370e+00 -1.53127971011899e+00
 O  4.45956189758484e+00  7.36997627190336e+00  7.05901550316866e+00    -8.75983253316047e-02  6.89300307890890e-02 -1.16842217167466e+00
 H  3.01387549765818e+00 -1.25743800256441e+00  4.15842503780550e+00     8.20092431316687e-01  3.96853355989109e+00  4.30866457856656e+00
 H  4.98761832968926e+00  7.94624140259356e+00  1.05075738361688e+00    -1.10098998004719e+00  2.12731761466965e-01  1.41545628143457e+00
 O  4.60694375361231e+00  1.01997690914880e+01  7.69408633743497e+00    -3.02033307425086e-02 -2.49414817085768e-01 -3.06983207770145e-01
 H -4.66816505444083e-01  4.53783070886651e-02  1.76292858039479e+00    -3.01215166571864e-01  1.52185131585282e+00  9.85202115344392e-01
 H  6.68251071049702e+00  8.10627106320113e+00  3.66101285811472e-01    -3.10239302691373e+00 -3.25814418823636e-01  9.55767351026918e-01
 O  7.34791917904483e+00  4.22686027633567e+00  6.33072418569734e-01     6.33133032759437e-01  9.70876637660121e-02 -2.51288597987514e-02
 H -6.11871798776846e-01  1.30648163647756e+00  4.80095693382152e-01     2.32441315260470e-01 -2.22957146802521e+00 -2.14020219999030e+00
 H  9.00763126328540e+00  7.32136245913567e+00  3.69075585610057e+00    -7.79833102167021e-01 -6.97971303810833e-01  3.38180518338284e-01
 O  8.23920665620713e+00  6.28107100301459e+00  6.38100401137895e+00     7.47169896042052e-01  2.75169687805455e-01  9.17386723354530e-01
 H  3.80630625097460e+00  1.04988001208932e+01  8.22302904306742e+00    -4.58148914603672e-01  1.66881915688214e+00  6.30379830900608e-01
 H  2.39128008991613e-01  5.18428296602575e+00  2.89409539029192e+00    -1.01445112351486e+00 -4.81337644905238e-01 -8.22357367106941e-01
 O  5.14252414543423e+00  3.59500893040071e+00  8.55202861136965e+00     2.38300278578310e-01  7.68925670608342e-02 -2.79117030509862e-01
 H  6.52468841923398e+00  8.70003605333681e-01  5.82438034951165e+00     1.47938025911810e+00  4.14435641131023e-01 -3.28079950507284e-01
 H  6.49932097092735e+00  3.39864953091628e+00  2.07574480916764e+00     1.13120569180324e+00  4.03449728690152e-01  1.49299006890821e+00
 O  5.37164346101722e+00  7.13845087596229e-01  4.04221506076893e+00     2.89810315922014e-01  1.91692679907903e-01  3.78628856474532e-01
 H -1.56871385695069e+00  5.48266745937723e+00  3.34310480122479e+00     9.00740847860037e-01  3.96764267874930e-01  1.92125964910710e+00
 H -3.82318628622175e-02  1.94170721322370e+00  2.49591226241646e+00     3.33159660415265e+00  1.14197327839038e+00 -3.58649529986846e+00
 O  2.47143647079092e+00  5.03949532108188e-01  1.20243280920847e+00     1.53402766277449e-01  2.91814986952049e-01  9.13247196698667e-01
 H  3.81645892661016e+00  3.35283626499070e+00  2.28227531919394e+00    -1.22887103399719e+00  6.15838052340829e-01  4.35288562639189e+00
 H  5.19113050528152e+00  1.61401080352073e+00  1.34654294341469e+00    -1.40031543956374e-01 -1.17135177964518e+00  1.00615117350571e+00
 O  5.83639160016776e+00  6.40722257420690e+00  3.83501350327985e+00    -7.12131188091577e-01 -3.69918993222543e-01  5.30642071172360e-02
 H  7.24269708126010e+00 -1.66121135548573e+00  3.31700791219111e+00    -3.65076331577498e-01  2.06261237383772e+00 -2.17769431178204e+00
 H  1.72392314919245e+00  5.62548274556026e+00  4.95324715013618e+00     1.64187031441065e+00  1.23121906837889e+00  6.82149659492592e-01
 O  1.52756579133917e+00  4.62264540541209e+00  1.51873722166632e+00    -2.91887242738352e-01 -1.07577211610910e-01  1.79944768053890e-01
 H  1.51213682812913e+00  1.92012000681422e+00  6.67328205916221e+00    -1.80986257998709e+00  3.66529935853184e+00  2.00268659776788e+00
 H  6.17411328838315e+00  1.45155588764556e-01  3.56984916979732e+00    -4.08381881746089e-01  2.22489943342779e-01 -7.47858888289151e-01
 O  7.99820409998916e+00  3.86628944815131e+00  5.33897257219360e+00     2.87710261785307e-01  5.45782228223581e-01 -9.61811969095271e-01
 H  1.34941508980483e+00  6.65858342274368e-01  1.41419138192942e+00    -1.02641331940298e+00 -5.42533960418027e-01  1.29489967227645e-01
 H  3.45461834291932e+00  5.51935893800336e+00  5.57757949669915e+00    -1.07878734230652e+00 -3.28597111690170e-01 -4.91065905480569e-01
 O  6.42847120413631e+00  2.61745592075110e+00  2.70507056442511e+00    -4.88977319058353e-01 -1.05085564032748e-01 -4.65052897418009e-01
 H  4.77130996284880e+00  6.67708859783243e+00  8.08960361260271e-01    -8.89902105075305e-01 -6.00240104349058e-01  4.68864960289554e+00
 H  5.07743355925944e+00  6.93520724402478e+00  3.75189306172591e+00    -2.68637519600310e+00 -2.80047949142948e+00 -1.63292633742206e-01
