   96
 8.60913  8.60913  8.60913
 O  1.73423  7.56553  7.33420    -0.17171 -0.41816 -0.33302
 H  0.62340  6.83635  8.25205     2.57057 -0.49368 -1.00268
 H  1.90246  5.03345  7.14190     1.49995 -0.33196  0.89915
 O  1.55536  8.57507  5.22303     0.36488  0.37796  0.09702
 H  2.85937  4.53191  8.40919     1.23533  1.09639 -0.80514
 H  7.21699  4.18769  4.76037     1.41553  1.54813  0.39757
 O  2.51715  7.61328  3.23990     0.42061 -0.43909 -0.58373
 H  1.24377  1.77819  7.99760     0.26434  0.51406 -0.75756
 H  5.24395  7.68188  6.52922    -2.15407 -2.75551  1.85701
 O  0.56109  2.33700  3.07094    -0.59977  0.38200  0.62202
 H  4.94600  3.88869  7.57453     3.24675 -0.37427 -1.17343
 H  3.89109  1.78998  6.85853    -0.47273  0.23320  0.42528
 O  2.56069  4.61786  7.61283    -0.21993 -0.01321  0.82100
 H  3.90357  4.82671  2.40386    -1.24809 -1.73425 -1.26221
 H  0.58754  6.94835  1.16032    -4.27588  1.90364  2.01537
 O  7.39336  2.31755  7.17987    -0.81658  0.51732 -0.82595
 H  7.99164  3.42334  0.51906     0.30895  1.89947  3.46264
 H  5.17746  3.14491  5.04617     2.02929 -2.01433 -2.15526
 O  7.92871  5.06020  3.33734    -0.57082  0.34844 -0.49750
 H  7.91450  8.32948  5.24222     1.96905 -0.43062  1.34781
 H  4.64186  8.25841  2.96848     2.26049  2.45805  1.90496
 O  4.11478  5.79722  0.65754     0.49084 -0.39912 -0.80095
 H  7.64927  3.02883  6.33130     1.59727  0.49469  1.51903
 H  7.26084  6.22140  6.55987    -1.70345  0.54473  1.33510
 O  5.96739  1.04340  0.86661     0.03392  0.59218  0.98326
 H  4.11933  4.09242  4.04575     1.00555 -2.70882  2.45431
 H  2.42424  8.15772  2.47950     2.46873 -2.51633 -5.38189
 O  2.91034  1.86521  4.28944     0.31464  0.27025 -0.35499
 H  7.31800  6.49620  0.46570    -1.33067  1.66291 -2.27171
 H  0.63180  5.88746  6.41229     0.69832  0.65085  0.29751
 O  3.40340  2.78248  1.43653    -0.74185  0.25513  0.11276
 H  0.14233  4.01389  4.83650     1.71135  2.92358  1.10536
 H  6.41283  4.72075  0.46982    -2.74369 -1.58940 -0.96401
 O  0.15941  0.59324  0.71436    -0.27189 -1.00469 -0.22735
 H  0.89833  0.47825  5.75431     0.22044 -5.08322  1.62586
 H  4.75482  7.58216  7.88278    -0.75602  4.93548 -2.57945
 O  8.23241  7.52795  3.33949     0.78147  0.09763  1.04218
 H  1.59743  3.66723  1.36928    -3.00993 -0.54320  0.21661
 H  1.73668  8.11634  6.28597    -1.82021  3.22708  1.78778
 O  4.50050  3.73907  5.55132    -0.21219 -0.15755 -0.44275
 H  4.68945  4.46756  0.20914    -2.40015 -1.62527  2.50784
 H  7.81063  1.49391  6.98192     1.54975 -1.14340 -0.67363
 O  2.09435  2.18714  7.33945     0.11088 -0.19452  0.20389
 H  1.92642  1.68444  4.64663    -1.50718  0.63589  1.27885
 H  4.81584  1.37407  3.76559     1.96189 -1.05896 -3.75605
 O  6.68202  7.23546  0.77946     0.18337 -1.27539  0.52829
 H  3.22821  5.90676  1.39559     2.93036 -0.15233 -0.31064
 H  6.98747  2.69248  7.96545    -1.10584 -3.49232 -2.40881
 O  0.35606  6.41271  0.47762    -0.36705 -0.68204  0.31194
 H  3.66358  3.30591  5.14057    -3.04933  0.69431  2.26442
 H  5.15006  0.93276  0.20090    -2.55798  1.87671 -0.14558
 O  7.28439  0.44286  5.63594     1.39069 -0.13794 -0.08447
 H  3.22390  0.00044  1.09866    -2.57832 -0.02761  1.41688
 H  3.06741  1.84761  1.59836     2.65218  0.95465  2.65393
 O  2.79260  5.53908  4.89761    -0.36663 -0.53133 -0.43921
 H  1.57085  5.12332  0.72922     0.09757  3.83951  2.25381
 H  3.66617  1.41427  4.21287     0.70660 -1.01341  1.72416
 O  4.41367  4.20829  3.14797     0.11737  0.61865 -0.50535
 H  4.69868  2.93643  0.55573     0.13047  4.34192 -0.99878
 H  6.45455  2.72325  3.66093    -0.74535 -3.01196  0.47079
 O  4.42709  8.05337  1.90982     0.21902  0.09661  0.11981
 H  2.53553  8.02487  7.57553    -1.33423  2.07267 -2.32453
 H  2.90888  5.21515  4.03661     1.31544  2.80159 -1.66722
 O  4.46582  7.37296  7.04515    -0.01099  0.05047 -1.13744
 H  3.01270  7.26416  4.13263     1.06401  3.31617  4.28141
 H  4.99864  8.04858  0.99285    -0.36139  0.01715  0.29544
 O  4.59815  1.60823  7.67011    -0.11693 -0.10676 -0.49852
 H  8.15478  0.62417  1.51780     1.84594  2.53125 -4.11050
 H  6.94146  8.14787  0.62559    -2.12879 -0.57142  2.16437
 O  7.35143  4.26058  0.64768     0.56331  0.24266 -0.03065
 H  8.51879  2.69329  2.36093     1.69560  0.01520 -1.37028
 H  0.41893  7.25654  3.58922    -0.01770 -0.89134 -0.06784
 O  8.25509  6.31946  6.37548     0.79319  0.39380  0.91345
 H  3.76558  1.84915  8.20832    -0.47594  1.67309  0.38108
 H  0.19637  5.31844  2.91603    -0.96061 -0.17937 -0.64500
 O  5.13380  3.60767  8.55900     0.21764  0.23169 -0.28178
 H  6.50727  0.82227  5.88197     0.88593 -0.06322  0.52476
 H  6.46077  3.25974  1.89935     1.29101  0.33579  0.24561
 O  5.36609  0.69769  4.06234     0.51383 -0.00811  0.55416
 H  7.04902  5.50222  3.38968     0.86089  0.47499  1.78611
 H  0.61360  1.29254  3.59070     1.12966 -1.47093 -3.02545
 O  2.42103  0.51401  1.22105    -0.21598  0.33768  0.88487
 H  3.84509  3.34583  2.25534    -0.83803  0.46427  4.57697
 H  5.57132  1.77996  1.34778    -0.84712 -1.15692 -0.23088
 O  5.85878  6.40388  3.83098    -0.66066 -0.44542  0.06563
 H  7.30214  6.91718  3.29175    -0.86325  2.12900 -2.18483
 H  1.77639  5.41978  5.14781     1.90504  1.12933  0.27817
 O  1.52429  4.61144  1.52174    -0.27659 -0.16427  0.18236
 H  1.61622  1.69509  6.77036    -1.89516  3.02798 -0.43104
 H  5.97894  0.21818  3.32379    -1.29649  0.71585 -0.98992
 O  8.01101  3.86295  5.40100    -0.13599  0.19782 -0.64966
 H  1.16282  0.61235  1.31341    -1.64063 -0.69205  1.24848
 H  3.49772  6.03090  5.31354    -1.47622 -0.08891 -0.28248
 O  6.46450  2.63283  2.68609    -0.49211 -0.10473 -0.58702
 H  4.77591  6.69782  0.75165    -0.50036 -0.07568  4.73225
 H  5.10218  6.92759  3.76232    -2.68324 -2.83365 -0.46400
