   96
 8.60913090000000e+00  8.60913090000000e+00  8.60913090000000e+00
 O  1.72617429118092e+00  7.56595207733580e+00  7.35689572306057e+00    -1.88761759246866e-01 -4.68871959757646e-01 -8.90318468908660e-02
 H  6.84855560525642e-01  6.83638009016996e+00 -3.46661947517538e-01     2.82100117493862e+00 -4.43691011179038e-01 -2.43572751413868e-01
 H  1.91096960979846e+00  5.01931017319488e+00  7.05603125138301e+00     1.58012246795046e+00 -5.53299117576547e-01  7.75300453596946e-01
 O  1.01606668752262e+01  8.59843855003722e+00  5.21453817796720e+00     5.33861094553434e-01  5.52632910344895e-01 -2.94191371680990e-01
 H  3.02049871482155e+00  4.86267837268145e+00  8.35230880269961e+00     1.44768891396014e-01  2.10853869916898e+00 -4.13130316437452e+00
 H  7.58682835312098e+00  4.58830078851507e+00  4.67075420909384e+00     4.98030024456437e-01  3.65613431624470e-01  2.39580702959131e-01
 O  2.52584169210098e+00  7.60138935547197e+00  3.25102390295546e+00     4.49750697055814e-01 -5.73124138395419e-01 -4.65971346464711e-01
 H  1.40888614584643e+00  2.06115075606187e+00  8.04654250921031e+00     1.93460964807380e+00 -6.96071742083708e-02 -3.00895291094309e+00
 H  5.11360728987555e+00  7.69047164444362e+00  6.41077173204441e+00    -2.17509943688299e+00 -2.62017787384918e+00  1.86146157864576e+00
 O  7.46026770013041e-01  2.31201512881708e+00  3.18539708220057e+00    -4.46443054488475e-01  1.15120228042620e-01  7.19476771519433e-01
 H  5.13696572908653e+00  3.81513896341579e+00  7.53419027675765e+00     3.08231067332148e+00  4.13624839563135e-01 -5.76058370533190e-01
 H  3.84528258355171e+00  1.03369004600668e+01  6.90238863745581e+00    -2.34588263015764e-01  4.87174493238526e-02 -1.76184456758848e-02
 O  2.54279019701049e+00  4.63165527634533e+00  7.60550154928824e+00    -1.66644757521451e-01  7.64372306096552e-02  9.97758473112455e-01
 H  4.07738973878690e+00  4.93551176598333e+00  2.43048816307233e+00    -9.38499691652133e-01 -1.37859755149176e+00 -1.01184318554914e+00
 H  6.23393135525867e-01  6.92607161550425e+00  1.18051714205165e+00    -3.69120086797072e+00  1.42626075626686e+00  2.01198014788165e+00
 O  7.39954492061309e+00  2.34487677410681e+00  7.16736205287624e+00    -6.47375450115380e-01  2.84177628047645e-01 -4.32789606644298e-01
 H -8.07727544043268e-01  3.34585957037241e+00  6.68648971772594e-01    -1.21092686195126e+00  2.49065510026729e+00  2.11663926858767e+00
 H  5.11934810565879e+00  3.21736640897432e+00  5.01930754795324e+00     2.46634971913060e+00 -1.67158011392697e+00 -2.59852770427529e+00
 O -6.81574330669153e-01  5.08026402783676e+00  3.31001318619514e+00    -5.54119618335905e-01  3.25812947747506e-01 -5.08079721796889e-01
 H  7.99669234055108e+00 -2.62334112302590e-01  5.32378580818611e+00     2.62503044512062e+00  1.95536964349341e-01  1.89895332586506e+00
 H  4.74283668351672e+00  8.35938143011274e+00  2.91715409891211e+00     3.29927100440679e+00  3.24235244744860e+00  1.55847134440770e+00
 O  4.10338282871206e+00  5.79053418672951e+00  6.43661051443642e-01     4.07173621830754e-01 -4.46654561434856e-01 -8.26003704948572e-01
 H -6.69723049196244e-01  2.90530595498514e+00  6.38264951897797e+00    -1.90777556518701e+00  2.33002011892704e+00 -2.56209160591022e+00
 H  7.23746880531605e+00  6.30377055765485e+00  6.53302289661936e+00    -1.67158852666749e+00  6.61556253396263e-01  9.82929242489729e-01
 O  5.93126487059264e+00  1.05773098891185e+00  8.54122266618727e-01    -3.34620077091380e-01  6.08130286094488e-01  7.91654726461023e-01
 H  4.13534338066475e+00  4.06195866960495e+00  4.06332090805051e+00     1.59005116718944e+00 -3.63951729687696e+00  2.78270802505308e+00
 H  2.54434321881738e+00  8.24714612078557e+00  2.53001133009714e+00     2.42757767816663e+00 -1.51810782735343e+00 -5.54998799297509e+00
 O  2.90372245653223e+00  1.91521296319232e+00  4.41666786237591e+00     2.21341815669316e-01  3.76395767032101e-01  1.34208579269657e-01
 H  7.29908072510381e+00  6.46282893320006e+00  9.18111191719226e+00    -1.28116571190528e+00  1.48458510097636e+00 -2.19476795747793e+00
 H  9.29311391778218e+00  6.03656812488637e+00  6.37932457650457e+00     9.86930440886723e-01  1.09001802159888e+00  1.88033754426972e-01
 O  3.42232984307449e+00  2.78846191946673e+00  1.42939357449809e+00    -5.66031799734515e-01  3.09751785097000e-01  7.26788562444150e-02
 H  8.72120180084845e+00  3.72276715701272e+00  4.76675297698626e+00    -8.54605767634474e-02 -4.54483984305986e-01  1.70779441159226e+00
 H  6.60970609290004e+00  4.85040301341962e+00  1.95197339166344e-01    -2.31347425089639e+00 -9.14342656645439e-01 -1.33361707210634e+00
 O  8.76700390131114e+00  6.61930767638102e-01  9.19402297400663e-01    -5.73596615544171e-01 -8.64147760105151e-01 -1.16440396800162e-01
 H  1.06720645292541e+01  9.44652434519515e+00  5.18035079784856e+00     3.83127627387680e+00 -2.72156523562501e+00  1.20013898979806e-01
 H  4.77386075915618e+00  7.49400442053849e+00  7.89506133949737e+00    -4.50148932378475e-01  4.36335596059796e+00 -1.84274642403322e+00
 O  8.22233316124169e+00  7.52519263698562e+00  3.33654755692908e+00     7.76021872895310e-01  1.55543786211856e-01  9.44388745366964e-01
 H  1.58105386041984e+00  3.67794183559266e+00  1.39924554691061e+00    -3.04797514727060e+00 -3.32401325652047e-01  4.89130315263766e-04
 H  1.03197805729770e+01 -3.70569805923424e-01  6.08802777437640e+00    -1.98025757044895e+00  3.38449807193271e+00  1.53600112527514e+00
 O  4.47780765629878e+00  3.70754257459654e+00  5.53095831577039e+00    -3.47557785936496e-01 -3.69096196166322e-01 -5.82575114882087e-01
 H  4.68985341153932e+00  4.46300572285589e+00  8.72217806454341e+00    -3.19594875048721e+00 -1.00490408873080e+00  1.52618987621075e+00
 H  7.60424878935491e+00  1.50808311964653e+00  6.72581646560823e+00    -6.05361893596884e-01 -1.22061084310970e+00 -2.25580112649171e+00
 O  2.09844493589925e+00  2.16640728132417e+00  7.31666551141141e+00     1.18047394086089e-01 -1.43668845386340e-01  6.90730215859330e-02
 H  1.19624135653293e+00  1.67191231413613e+00  3.69480202957675e+00    -3.92584558570485e-01  2.90037256038696e+00  6.79994204405834e-01
 H  4.52702010241326e+00  1.12636697482391e+00  3.64262188983322e+00    -4.83175875602712e-01 -5.33646670806336e+00 -1.48268911678709e-01
 O  6.66000388649795e+00  7.23679078750245e+00  9.40610714888405e+00     8.93513454693028e-02 -1.34900240667056e+00  5.88297782409350e-01
 H  3.28047712317592e+00  5.83015396500512e+00  1.45044473153977e+00     2.90975881991320e+00  2.81481611562402e-03 -4.69795744143144e-01
 H  6.90622165701715e+00  2.96936216575783e+00 -5.93774182992732e-01    -2.05865738091808e-01 -1.34867337220972e+00 -1.97344204804612e+00
 O  3.67097222965310e-01  6.43604100082325e+00  4.78809962191649e-01    -3.78361205212089e-01 -5.79610986838801e-01  2.98318384106253e-01
 H  3.70132539834138e+00  3.16286518107821e+00  5.15411971750842e+00    -2.76855792408351e+00  1.18094797662925e-01  2.56650537665714e+00
 H  5.22014960652312e+00  1.28276482117322e+00  1.57284071768539e-01     6.64529229966817e-02  3.86979242186478e+00 -1.89695026826514e+00
 O  7.28822008042831e+00  4.32851713221094e-01  5.63708902476911e+00     1.32325003687758e+00 -1.74627042939841e-01 -1.65117186312038e-02
 H  3.26879995864528e+00 -5.53930121755569e-02  1.01599675868998e+00    -2.11138878365328e+00 -4.35913654392923e-01  8.60233191943591e-01
 H  3.12209016446557e+00  1.86666780555974e+00  1.55789930501400e+00     2.08892116205599e+00  5.96161939958122e-01  2.50139099157707e+00
 O  2.77434266462704e+00  5.53379697818345e+00  4.90924996330924e+00    -4.78886565784959e-01 -5.29195937422915e-01 -4.06362731110573e-01
 H  1.67826640667410e+00  5.04896431561662e+00  7.00287910407876e-01     1.02737686580692e+00  2.79594574991336e+00  2.07125766698163e+00
 H  3.17765371828435e+00  1.26958574903798e+00  3.78736590859167e+00     1.35201462095538e+00  2.36615774004845e-01 -5.85399331059536e-01
 O  4.39691169178213e+00  4.19962756706488e+00  3.14382407769372e+00     7.84301625826212e-02  5.96344328619874e-01 -5.33654648855989e-01
 H  4.55515460086977e+00  3.04083030136680e+00  9.28430535195765e+00    -8.38861034913265e-01  4.91149541254811e+00 -3.26472565220271e-01
 H  6.61125870829281e+00  2.36226201992800e+00  3.65016498846786e+00    -8.29072071527615e-01 -4.22477678843161e+00 -7.32818753479773e-01
 O  4.41163419698808e+00  8.04983492618360e+00  1.92075756825410e+00     2.58521220253251e-01  5.42441757251281e-02  1.26585777352641e-01
 H  2.50821670947879e+00  8.09207876066199e+00  7.49319874548388e+00    -1.85931984734243e+00  1.82328440731235e+00 -2.79038071953111e+00
 H  2.93294099994024e+00  5.12124089099553e+00  4.10694773124458e+00     1.44651235489919e+00  1.75929642827980e+00 -1.53127971011313e+00
 O  4.45956189758488e+00  7.36997627190326e+00  7.05901550316870e+00    -8.75983253319863e-02  6.89300307892035e-02 -1.16842217167503e+00
 H  3.01387549765782e+00 -1.25743800256470e+00  4.15842503780543e+00     8.20092431315793e-01  3.96853355988788e+00  4.30866457857322e+00
 H  4.98761832968953e+00  7.94624140259316e+00  1.05075738361696e+00    -1.10098998004451e+00  2.12731761469045e-01  1.41545628143450e+00
 O  4.60694375361236e+00  1.01997690914879e+01  7.69408633743501e+00    -3.02033307421974e-02 -2.49414817085842e-01 -3.06983207769268e-01
 H -4.66816505443359e-01  4.53783070886563e-02  1.76292858039575e+00    -3.01215166574190e-01  1.52185131585409e+00  9.85202115353487e-01
 H  6.68251071049683e+00  8.10627106320086e+00  3.66101285811173e-01    -3.10239302691491e+00 -3.25814418824164e-01  9.55767351026411e-01
 O  7.34791917904480e+00  4.22686027633560e+00  6.33072418569617e-01     6.33133032760039e-01  9.70876637658405e-02 -2.51288597987586e-02
 H -6.11871798776700e-01  1.30648163647296e+00  4.80095693377133e-01     2.32441315286436e-01 -2.22957146804913e+00 -2.14020219998274e+00
 H  9.00763126328503e+00  7.32136245913465e+00  3.69075585610072e+00    -7.79833102167878e-01 -6.97971303803381e-01  3.38180518332640e-01
 O  8.23920665620706e+00  6.28107100301464e+00  6.38100401137888e+00     7.47169896042301e-01  2.75169687805586e-01  9.17386723354808e-01
 H  3.80630625097447e+00  1.04988001208930e+01  8.22302904306732e+00    -4.58148914605526e-01  1.66881915687967e+00  6.30379830900626e-01
 H  2.39128008991896e-01  5.18428296602533e+00  2.89409539029163e+00    -1.01445112351353e+00 -4.81337644904499e-01 -8.22357367107383e-01
 O  5.14252414543422e+00  3.59500893040080e+00  8.55202861136958e+00     2.38300278578480e-01  7.68925670610066e-02 -2.79117030510916e-01
 H  6.52468841923404e+00  8.70003605333795e-01  5.82438034951162e+00     1.47938025912018e+00  4.14435641133893e-01 -3.28079950510245e-01
 H  6.49932097092740e+00  3.39864953091624e+00  2.07574480916768e+00     1.13120569180193e+00  4.03449728689139e-01  1.49299006890959e+00
 O  5.37164346101716e+00  7.13845087596262e-01  4.04221506076894e+00     2.89810315921888e-01  1.91692679907982e-01  3.78628856474885e-01
 H -1.56871385695072e+00  5.48266745937706e+00  3.34310480122409e+00     9.00740847855360e-01  3.96764267883375e-01  1.92125964910916e+00
 H -3.82318628620744e-02  1.94170721322421e+00  2.49591226241642e+00     3.33159660415413e+00  1.14197327838967e+00 -3.58649529987241e+00
 O  2.47143647079083e+00  5.03949532108207e-01  1.20243280920850e+00     1.53402766276789e-01  2.91814986952244e-01  9.13247196699680e-01
 H  3.81645892661005e+00  3.35283626499065e+00  2.28227531919421e+00    -1.22887103399726e+00  6.15838052341387e-01  4.35288562639225e+00
 H  5.19113050528129e+00  1.61401080352032e+00  1.34654294341500e+00    -1.40031543956390e-01 -1.17135177964725e+00  1.00615117350687e+00
 O  5.83639160016772e+00  6.40722257420713e+00  3.83501350327988e+00    -7.12131188091573e-01 -3.69918993222005e-01  5.30642071170348e-02
 H  7.24269708125967e+00 -1.66121135548520e+00  3.31700791219046e+00    -3.65076331575074e-01  2.06261237382910e+00 -2.17769431178316e+00
 H  1.72392314919226e+00  5.62548274555981e+00  4.95324715013674e+00     1.64187031440931e+00  1.23121906837741e+00  6.82149659488884e-01
 O  1.52756579133917e+00  4.62264540541209e+00  1.51873722166632e+00    -2.91887242738657e-01 -1.07577211610856e-01  1.79944768053639e-01
 H  1.51213682812940e+00  1.92012000681373e+00  6.67328205916209e+00    -1.80986257998590e+00  3.66529935852796e+00  2.00268659776705e+00
 H  6.17411328838409e+00  1.45155588764642e-01  3.56984916979874e+00    -4.08381881741295e-01  2.22489943341417e-01 -7.47858888289565e-01
 O  7.99820409998880e+00  3.86628944815167e+00  5.33897257219290e+00     2.87710261784648e-01  5.45782228224406e-01 -9.61811969095253e-01
 H  1.34941508980554e+00  6.65858342274828e-01  1.41419138192999e+00    -1.02641331938726e+00 -5.42533960420554e-01  1.29489967216981e-01
 H  3.45461834292066e+00  5.51935893800664e+00  5.57757949669762e+00    -1.07878734230483e+00 -3.28597111686182e-01 -4.91065905481791e-01
 O  6.42847120413633e+00  2.61745592075117e+00  2.70507056442526e+00    -4.88977319058197e-01 -1.05085564032660e-01 -4.65052897417462e-01
 H  4.77130996284900e+00  6.67708859783222e+00  8.08960361260198e-01    -8.89902105074576e-01 -6.00240104349523e-01  4.68864960289675e+00
 H  5.07743355925984e+00  6.93520724402528e+00  3.75189306172506e+00    -2.68637519600361e+00 -2.80047949142646e+00 -1.63292633744529e-01
