   96
 8.60913085937500e+00  8.60913090000000e+00  8.60913090000000e+00
 O  4.51210122007340e+00  6.62070265930987e+00  6.53725103511181e+00     8.25327204012521e-01  7.18925219609786e-01  6.68898518041123e-01 
 H -3.50501494569400e-01  9.70851966952318e+00  5.55354929977206e-01    -1.41764230333720e+00  5.84933008901563e-03 -2.72072442523188e-01 
 H -1.60997358755254e+00  5.44961601767888e+00  6.69647929841278e+00    -1.40792151812171e+00 -2.37416195777090e+00  2.36955477748593e+00 
 O  8.57573822910625e+00  8.04518379619507e+00  5.70331577207965e+00     9.51110570667612e-02 -3.07323222151789e-01  9.43845940612419e-02 
 H  5.72598384280556e+00  2.15111060866171e+00  6.00972833570863e+00    -8.72078480156625e-01 -4.06940551302849e-01  1.22833362767662e+00 
 H  8.71050885399530e+00 -1.45107682463604e-02  3.26065035032843e+00    -2.40477952332183e+00 -3.45384675416932e+00 -2.56049684592393e+00 
 O -7.44444426211118e-01  6.17055319227676e+00  1.84867148919398e+00    -8.38380484228975e-01 -6.22095480309246e-01 -4.61889546929677e-01 
 H -1.78732379870660e+00  4.49065905586397e+00  8.88153646546424e+00    -4.23177009857496e+00 -2.04694728374528e-01  9.28138192591688e-01 
 H -1.11717292615741e+00  6.59084105312961e+00  8.33620233845358e+00     1.41467348874281e+00 -3.24124872955063e+00  7.79331964980834e-01 
 O  1.44781005161701e+00  2.07161676263216e+00  3.00147587984094e+00     1.33942533799676e-01 -2.06311502994655e-01 -4.65766018756894e-01 
 H  4.44208788341839e+00  8.33006263262689e+00  9.63061100172825e+00     4.36438429028183e-02  2.52078204835326e+00  1.38649916200060e+00 
 H -2.28081684127391e-01  9.52948937930366e+00  7.73185295465150e+00    -3.80248213852457e-01  4.48489906356236e-01 -1.83192327228666e+00 
 O  1.89408066530646e+00  5.00993834347964e+00  7.73516120420720e+00     1.70334565988682e-01  1.23474817848027e-01 -2.75405648879434e-02 
 H -1.34887875445493e+00  1.30029020909275e+00 -3.88519734802831e-01    -3.52791717738027e+00 -1.90671549151607e+00 -1.45928913610304e+00 
 H  1.23538385392295e+00  3.90803180889345e+00 -3.23479443022284e+00     3.43808976141072e-01 -1.36633640809407e+00 -1.29906904867202e+00 
 O  8.20893304323673e+00  2.80912551128009e+00  7.34847995113312e+00    -2.96148179435814e-01  7.10088048654864e-01 -5.10144115723054e-01 
 H -3.51994453212669e+00  5.31130229231337e+00  2.13350424151997e+00    -1.64725524104849e+00 -1.31386360332024e+00 -6.10368235701001e-01 
 H  3.18196056702915e+00  6.55085232432365e+00  1.15102443510854e+01     2.10054743665104e-01 -8.73556286776128e-01  1.10723729499285e+00 
 O  4.33136344217754e-01  4.45450537645352e+00  3.61591483924964e+00    -2.52543945255870e-01 -2.64111805084141e-01 -6.06874805611469e-02 
 H -1.10068999990739e+00 -2.05238522630235e+00  3.93322035379221e+00    -3.21176913931992e-01  7.82394331969538e-01  1.60614703141906e+00 
 H  5.04460015010110e+00  9.26073050616293e+00  7.36501405682941e-02     8.20009635368049e-01 -1.16687649262753e+00  5.12444320145046e+00 
 O  1.73616024422521e+00  5.73280015571362e+00  2.87346848712390e+00    -8.78827804979953e-01 -2.11662926019988e-01  1.01956848837961e-01 
 H -2.48638729932453e+00  4.84495213495597e+00  7.67628115764553e+00    -8.47702521441646e-01 -1.52870419040885e+00  4.32758557111464e-02 
 H  6.81782166778189e+00  6.22145057176679e+00  7.54321124316921e+00    -1.97772913684941e+00  4.36318191372163e-01 -2.68181272756533e-01 
 O  6.58421877149588e+00  2.16802104772954e+00  1.32238407355255e+00     1.94079430500197e-01 -7.69658379464509e-02 -6.57063874589683e-04 
 H  4.91207753414904e+00  2.89291680750594e+00 -8.73118453016980e-01     1.87142152677682e+00  2.57805041211390e-01 -3.77920408674894e-02 
 H  4.81139611449840e+00  4.82417327231720e+00  4.73638487003877e+00     1.51606360321957e+00 -2.40297123636341e+00  9.31567544003052e-01 
 O  3.24227471355319e+00  1.83785613893378e+00  4.43239088997136e+00     4.51616344635299e-02 -4.49247787017014e-01 -5.12440246390713e-01 
 H  8.95192155603077e+00  5.14147864468105e+00  8.00847904132711e+00    -3.17771724174376e+00  6.92920469475193e-01 -6.90776626250917e-01 
 H  7.58308986191708e+00  9.91429809271826e+00  1.29842587535737e+01     3.53974941064430e+00  1.82654358028940e+00 -1.02375584156447e+00 
 O  2.84050613449977e+00  2.94495397033899e+00  1.63963197817387e+00    -3.02903980147938e-01  2.97318743366625e-01 -2.21119320683342e-01 
 H  7.44098503901361e+00  4.68656539918635e+00  3.28350745541635e+00    -7.32845817692458e-01  7.17983360145229e-01  1.98501156120426e+00 
 H  3.66571912452825e+00  1.26537539399780e+01  2.82622632633894e+00    -3.82076468250147e-02  3.77129483303065e+00 -1.12880836933174e-01 
 O  9.46477065687141e+00  1.74341363108342e+00  1.70796389595349e+00     4.72406207857324e-01  6.40483636465534e-02  2.37796480895072e-01 
 H  1.24011666343156e+01  7.89279218256946e+00  5.48554666181776e+00     8.41059685264146e-01 -2.67260985570973e+00 -1.51287381645742e+00 
 H  5.08580307903910e+00  6.35757705075452e+00  1.07194380303547e+01    -5.61446857346278e-01 -1.54152342900362e-01  3.49903978184219e+00 
 O  7.29450197360549e+00  7.71683947096531e+00  1.68553103111667e+00    -2.72370375622593e-01 -4.39868570573787e-01 -3.63298610662654e-01 
 H  6.15599362749261e+00  3.63815098691405e+00 -9.67870150103210e-01     2.29394148064359e+00  1.12578307166474e+00  1.98748712410138e+00 
 H  3.47985225385052e+00  1.09303219403901e+00 -5.61078529132509e-01    -2.01901485186254e+00 -1.42239325051558e+00 -2.22979211013982e+00 
 O  5.34068115282409e+00  3.36475589613565e+00  4.40833607652746e+00    -1.36274680584694e-01  1.76244841709807e-01 -6.37666459606688e-01 
 H  5.25048092241807e+00 -6.41392790459070e-01  6.24222337766040e+00     1.47150709433392e+00 -1.10296721811049e+00 -1.31574126196544e+00 
 H  6.16624378469932e+00  1.42659442414763e+00  7.44054883581277e+00     4.19375283078064e-02  3.72741706343455e-01 -3.41902669565942e-01 
 O  1.25997729226275e+00  5.84454914173494e-01  6.66443311513695e+00    -2.58026536628010e-01 -5.20197196432889e-01 -1.58299251525563e-01 
 H  5.58602631522401e+00  4.35128177762706e+00  3.67929867168483e+00     7.72550069957868e-01 -1.92351496845536e-01  2.09263938796187e+00 
 H  1.15668600723714e+00  5.86144755506847e+00 -1.85953098222969e-01    -2.43295749654792e+00  7.35734408703434e-01 -1.98236581099198e+00 
 O  6.75954246148734e+00  6.86513027125914e+00  9.43611625478353e+00    -2.87416655158925e-01  8.13077512898487e-02  6.70533448451988e-01 
 H  1.01198966659354e+00  1.16649253777446e+01  7.20921886500690e+00    -2.32700436143413e+00  2.00199153353951e+00  3.58517776801942e+00 
 H  3.44896151990252e+00 -2.87078298208241e+00 -3.83200296816454e+00     5.74377201123892e-01 -3.39054083565333e+00 -1.74113215807311e+00 
 O  8.47034031446486e-01  6.80811396553815e+00  1.09129332729898e+00    -1.35091944516245e-02  1.12624562706873e-01  3.29630530362807e-01 
 H  5.87302506404673e+00  5.14182377105612e+00  4.91350680362812e+00    -1.69379094068522e+00 -2.06759598700957e+00  3.49035033930753e+00 
 H  3.30112642618519e+00 -5.92352677381257e+00 -1.08713205802348e+00    -2.32999569626723e+00 -5.59397742390941e+00 -2.10321704743202e+00 
 O  6.12841426992950e+00  6.97472787463479e-01  6.19994325987916e+00     1.64467942232626e-01 -4.13755852031859e-02 -2.65514626946360e-01 
 H  6.13693251429572e+00  3.97696924883352e+00  2.40983683160704e+00     1.54027901315458e+00 -1.35195458685405e+00  1.09373719863035e-01 
 H  3.26243569232154e+00  4.01942896825490e+00 -3.40450869177435e+00    -1.33770056802434e+00 -1.80022217886413e+00 -1.76130545922677e+00 
 O  3.96326519825789e+00  7.64296384787958e+00  3.75989863901138e+00     5.79880775714947e-01  7.26427290525230e-01  2.84462377099240e-01 
 H  5.00345303908889e+00  7.42981210729152e+00  6.55086399922532e-01     3.20022607459674e+00  8.02221852174970e-01 -1.59299687713218e+00 
 H  2.48656299588409e+00 -2.07864083349103e+00  5.58647320432747e+00     1.24826344375293e+00  1.08831189673400e-01  4.81427866883025e-01 
 O  4.65647867076534e+00  5.79179900240136e+00  5.96456487493046e+00     4.42489331263703e-01 -1.87005230468694e-01  4.56739928329540e-02 
 H  3.00125173328681e+00  8.87399268456031e+00  7.43900562766632e+00     2.25709519840380e-01  1.42547662037139e+00 -1.11331487646065e+00 
 H  7.87429182202923e+00  3.64410734641732e+00  1.41318761296897e-01     1.32736203880114e+00  1.19002137763735e-01 -1.34218769272243e+00 
 O  4.59079867182511e+00  7.99580532411796e+00  2.62305039959348e+00    -3.49011819924099e-01 -7.65942863039540e-02  7.49747573626536e-01 
 H  1.64893642187149e+00  6.70347137424338e+00  6.33301779401501e+00    -1.51536665936616e+00  7.06912214996689e-01 -1.47604601929802e+00 
 H -7.40150368231777e-01  4.37980098332642e+00  4.85040845325678e+00     1.48907585029197e+00 -4.31214602814536e-01 -1.83276702321896e+00 
 O  5.58951907102243e+00  6.27082948446736e+00  7.10830563712115e+00     2.40259664360624e-01 -1.17906383892797e-01  1.57255718290933e-01 
 H  8.38067125380256e+00  9.82964833115017e-01  5.83601449634397e+00    -5.79559157015278e-02  2.09381396567661e+00  1.73507331166299e+00 
 H  9.70468685158373e+00  8.40906701630353e+00  3.78117683286183e+00     1.89384267626229e+00  1.40216872222925e+00 -3.42365371207706e-01 
 O  4.37955470302246e+00  9.82134863258473e+00  7.33893556159582e+00     3.00966624196751e-01  7.47363306028403e-01  3.42480715774080e-01 
 H  3.98785362305628e+00  4.98147216057606e-01  1.75161901947493e+00     3.77033453757177e+00  3.91212552702916e+00 -4.09360570854672e-01 
 H  8.73610305880304e+00  6.05777455257717e+00  6.54384994578085e-01    -2.41142138899249e+00  1.35000367715579e+00 -3.90760077462421e-01 
 O  8.18647293291507e+00  4.70556845946460e+00  3.50990095762836e-01     4.24944257773115e-01  9.05553297219961e-02 -5.53029094575644e-03 
 H -9.06577750641488e-01  1.17744406358280e+01  6.00810459710665e+00     3.90494858130116e-01  2.32171080147013e+00  1.52920700497425e+00 
 H  7.21977727635038e+00  7.08523742044100e+00  3.10302820689510e+00     1.83655603048741e+00  8.33653413664418e-01  1.35374500575204e+00 
 O  6.78612760855219e+00  4.75061162527572e+00  5.55126208456951e+00    -4.98454498449441e-01 -2.73490848074532e-01  4.12130192250575e-02 
 H  5.61939164431608e+00  9.88547356577659e-01  4.99574228964222e+00    -2.21290459871935e+00 -1.37096639268570e+00 -2.01222965756604e+00 
 H -4.54552816426493e+00  2.01738054278750e+00  1.82147988221303e+00    -2.55042223327442e-02 -1.76621599287610e+00  5.58513648767246e-01 
 O  5.38074632830833e+00  4.22290926958287e+00  8.61815614979171e+00    -6.25753031886709e-02  5.32902758097764e-02  2.14341490745975e-01 
 H  7.06944683440629e+00  1.74997924238834e+00  5.52882140644176e+00     2.69783409305765e-01  1.86577424555530e+00 -1.05689493373568e+00 
 H  1.26523289746671e+01  2.34573673748376e+00  6.64901809280013e+00     1.25789690518038e+00  3.23130567507122e+00 -1.08214180087790e-01 
 O  6.39013438408439e+00  1.18892155613200e+00  2.87721993508961e+00     3.62501330858375e-01  2.78047541706626e-01 -2.85775661418606e-01 
 H -2.15908744054070e+00  6.16838704157192e+00  2.20906958538198e+00    -1.65749361622507e+00 -1.39247486577118e+00 -4.14908489990936e-01 
 H  1.92481531293399e+00 -1.55260601502977e+00  4.48141072880379e+00     3.97337225326398e+00 -1.49887795160249e+00 -6.58289286958916e-01 
 O  2.89224986065848e+00  4.59439483453488e-01  8.67004836173381e-01     2.05120111876184e-01  4.92383599492642e-02  2.07171163745387e-01 
 H  6.75033158167176e+00  7.93076342933035e+00  5.81436703480287e+00     2.61247784520105e-01  1.02230318396167e+00  1.80395544380443e+00 
 H  2.31312786552524e-01  9.10048121744759e+00  1.71850187120944e+00    -4.44839335892267e+00  1.81175201340684e+00  7.21351449218058e-01 
 O  5.67452834037339e+00  5.85272079991519e+00  3.35260971774030e+00     7.18244634346468e-02 -3.99546371453125e-02 -6.97586272118612e-02 
 H  9.34413080421715e+00 -3.58271677361149e+00  7.00525319949648e-01     5.19673361239912e-01 -1.78676525926134e+00  7.58659237669345e-01 
 H -9.48203744643997e-01  4.12018477026140e+00  6.88268614340758e+00    -4.75111957449784e-01 -1.25354993960963e+00  6.21927468026359e-01 
 O  1.84294738191795e+00  3.80697513675501e+00  9.45570987909498e-01     8.51949477280195e-01 -4.83397950491003e-02  8.70598051838294e-02 
 H  6.17242461021665e+00 -1.24845604952289e+00  1.09097085987473e+01    -1.47633831088915e+00  3.73289190189780e+00  9.16287164798704e-02 
 H  4.48361105983987e+00  3.84732316873550e+00  6.16287747040356e+00    -1.74547364801580e-01  3.06226222575189e+00 -3.52732599551221e+00 
 O  6.89955254104551e+00  3.63593033687726e+00  5.00661403315598e+00    -4.70888848464238e-01  2.01942837465268e-02 -3.90751750711737e-01 
 H  2.60986940558698e+00  4.32775868741274e+00  3.50065985247401e+00     1.47358627425355e+00 -1.54526082879664e+00  6.83682206222899e-01 
 H  2.71383692831276e+00  5.76598122363439e+00  8.28108709534836e+00    -1.45327971000059e+00 -6.13223780444513e-01  1.36115430644557e+00 
 O  7.81077075677797e+00  2.80748200627195e+00  3.36012765380719e+00     7.42046538630609e-02  5.88608286669039e-02 -1.16234443058658e-01 
 H  5.49802016736359e+00  7.66678485219848e+00  3.69979633395323e+00     7.08902349581330e-01 -6.48894114913833e-01  5.05070461767760e-01 
 H  6.27783135876247e+00  6.76752114005871e+00  4.68124231426858e+00    -1.25400809378221e+00  4.28099817722464e-02  6.00651183323538e-02 
