   96
 8.60913090000000e+00  8.60913090000000e+00  8.60913090000000e+00
 O  4.51209377250517e+00  6.62069949815839e+00  6.53725157597786e+00     8.25304985460435e-01  7.18922211754975e-01  6.68912066930502e-01
 H -3.50892984891801e-01  9.70849345816423e+00  5.55598197204991e-01    -1.41695264678887e+00  4.72661863774770e-03 -2.70766904579102e-01
 H -1.61008786920751e+00  5.44994261010033e+00  6.69720295361056e+00    -1.40999807552924e+00 -2.36677129002890e+00  2.38184197343336e+00
 O  8.57573930469729e+00  8.04519519606023e+00  5.70330801151584e+00     9.51128730927895e-02 -3.07284629722867e-01  9.43603906803630e-02
 H  5.72668883744165e+00  2.15119749343210e+00  6.00990841063848e+00    -8.70244954588183e-01 -4.06907678221705e-01  1.22873781870849e+00
 H  8.71062742979535e+00 -1.46045740182809e-02  3.26039570964781e+00    -2.40189969116501e+00 -3.45494994116103e+00 -2.56192380604512e+00
 O -7.44438188754237e-01  6.17053981786547e+00  1.84866801830398e+00    -8.38378341812981e-01 -6.22104403876793e-01 -4.61888942592105e-01
 H -1.78715573024572e+00  4.49057177798423e+00  8.88125893628007e+00    -4.23148443382104e+00 -2.06586229928389e-01  9.26874442110170e-01
 H -1.11560579137406e+00  6.59230539869103e+00  8.33549270700362e+00     1.41137131030474e+00 -3.25021159355114e+00  7.41093714279201e-01
 O  1.44781427485745e+00  2.07161853572719e+00  3.00147267816188e+00     1.33945665015429e-01 -2.06309155480489e-01 -4.65767097642447e-01
 H  4.44219896859504e+00  8.32991218275254e+00  9.63039475436316e+00     4.28721707039617e-02  2.52138713112328e+00  1.38351793356212e+00
 H -2.27192789818494e-01  9.53002582485401e+00  7.73321571125752e+00    -3.82424896773461e-01  4.55237978269296e-01 -1.82483811945280e+00
 O  1.89409246346753e+00  5.00993195026441e+00  7.73515844748306e+00     1.70363582273912e-01  1.23493399129891e-01 -2.75158343461881e-02
 H -1.34813821545171e+00  1.29945809212954e+00 -3.89660510634346e-01    -3.52484231492598e+00 -1.91238232868052e+00 -1.46657872679213e+00
 H  1.23542013159166e+00  3.90808971559189e+00 -3.23459984271348e+00     3.43918373557623e-01 -1.36619468278091e+00 -1.29878448843098e+00
 O  8.20888955484120e+00  2.80916321816418e+00  7.34842228428141e+00    -2.96180322444396e-01  7.10130662422870e-01 -5.10201955782100e-01
 H -3.51991605778573e+00  5.31085042716512e+00  2.13349381874661e+00    -1.64665886339531e+00 -1.32848571496492e+00 -6.07958745369819e-01
 H  3.18148729044205e+00  6.55108687189694e+00  1.15099276608731e+01     2.08797473834577e-01 -8.73286840494382e-01  1.10640952791683e+00
 O  4.33118783581892e-01  4.45450487458919e+00  3.61593890905854e+00    -2.52563541012076e-01 -2.64109099613653e-01 -6.06537605880954e-02
 H -1.10062760730540e+00 -2.05268092579193e+00  3.93261444060158e+00    -3.16810927482747e-01  7.75299494835576e-01  1.61314974227876e+00
 H  5.04713032304311e+00  9.25802845643248e+00  7.30051726727071e-02     8.33462202281531e-01 -1.17767001946526e+00  5.11909199791139e+00
 O  1.73615421979995e+00  5.73277554628756e+00  2.87347404738968e+00    -8.78836819041328e-01 -2.11702201452345e-01  1.01970887913616e-01
 H -2.48509806056497e+00  4.84495982771667e+00  7.67560435018979e+00    -8.43772310287465e-01 -1.52871472459740e+00  4.08380362010731e-02
 H  6.81779254326260e+00  6.22291056226892e+00  7.54444161768232e+00    -1.96314035167329e+00  4.48497616544386e-01 -2.51385292918279e-01
 O  6.58421855888803e+00  2.16802482074257e+00  1.32238497202756e+00     1.94076817657875e-01 -7.69600278443114e-02 -6.47712804942644e-04
 H  4.91197076950364e+00  2.89326134025346e+00 -8.73378845620485e-01     1.87062759454894e+00  2.59423603447419e-01 -3.83563262867675e-02
 H  4.81155359020594e+00  4.82412492054926e+00  4.73615803904168e+00     1.51448152643817e+00 -2.40384909388044e+00  9.30513309338478e-01
 O  3.24228385227656e+00  1.83786168244295e+00  4.43238699042527e+00     4.51790093211704e-02 -4.49232748536434e-01 -5.12445078047782e-01
 H  8.95185304523791e+00  5.14152100418238e+00  8.00849877536938e+00    -3.17781073005812e+00  6.92815401882292e-01 -6.91245234271525e-01
 H  7.58305789686333e+00  9.91418751573932e+00  1.29842101040995e+01     3.53957288479804e+00  1.82611099828105e+00 -1.02397509292062e+00
 O  2.84050641007496e+00  2.94495410512945e+00  1.63963197420077e+00    -3.02902280060465e-01  2.97318060671078e-01 -2.21117792712071e-01
 H  7.44068473886459e+00  4.68655133450397e+00  3.28378753453977e+00    -7.33508874756501e-01  7.18105444575148e-01  1.98553482698956e+00
 H  3.66572663806428e+00  1.26537584932237e+01  2.82622595912112e+00    -3.81609362395187e-02  3.77134009803666e+00 -1.12895088527100e-01
 O  9.46477825455539e+00  1.74337381341891e+00  1.70790060470450e+00     4.72410035786845e-01  6.39636258002616e-02  2.37683792366450e-01
 H  1.24013995119921e+01  7.89270196492328e+00  5.48558967827496e+00     8.41497230408260e-01 -2.67279378870262e+00 -1.51275145810713e+00
 H  5.08581692910200e+00  6.35712940234532e+00  1.07191359466800e+01    -5.62378979323673e-01 -1.43074012017073e-01  3.49463401334235e+00
 O  7.29450122294194e+00  7.71683539958700e+00  1.68552176352828e+00    -2.72369102100745e-01 -4.39875977449283e-01 -3.63333737626373e-01
 H  6.15575677786099e+00  3.63800055574470e+00 -9.67886240798352e-01     2.29353958130730e+00  1.12536730066855e+00  1.98744019160953e+00
 H  3.47978236806048e+00  1.09296583051542e+00 -5.61110818770051e-01    -2.02075031011674e+00 -1.42242204984242e+00 -2.22907089204611e+00
 O  5.34067787691143e+00  3.36475891617726e+00  4.40832822110319e+00    -1.36277954666392e-01  1.76257626754037e-01 -6.37681963063088e-01
 H  5.25071186489869e+00 -6.41227114823085e-01  6.24228043046150e+00     1.47215930895452e+00 -1.10225241771500e+00 -1.31552494414309e+00
 H  6.16616083465556e+00  1.42657593621397e+00  7.44082757141298e+00     4.13889049939465e-02  3.72168738668272e-01 -3.40488262791899e-01
 O  1.25997862587000e+00  5.84454654352020e-01  6.66443448939559e+00    -2.58033350318021e-01 -5.20191400001018e-01 -1.58280629748839e-01
 H  5.58601743266968e+00  4.35130938977562e+00  3.67929839973760e+00     7.72433224343414e-01 -1.92194762692392e-01  2.09268074320011e+00
 H  1.15663826688374e+00  5.86144529705578e+00 -1.85924461021841e-01    -2.43327945009273e+00  7.35563407455254e-01 -1.98192637920060e+00
 O  6.75942966285930e+00  6.86504964814745e+00  9.43630183655087e+00    -2.88105859951896e-01  8.08524452251628e-02  6.71629577301053e-01
 H  1.01185537857160e+00  1.16646311172535e+01  7.20944026269306e+00    -2.32731876899353e+00  2.00142189387083e+00  3.58555411156244e+00
 H  3.44894945053672e+00 -2.87076329828698e+00 -3.83200240058717e+00     5.74213182148966e-01 -3.39042584037692e+00 -1.74114853453148e+00
 O  8.47053976887251e-01  6.80810848115755e+00  1.09132739087617e+00    -1.34695109074576e-02  1.12609810669315e-01  3.29690752991591e-01
 H  5.87266921312583e+00  5.14198282679959e+00  4.91361297503995e+00    -1.69245416567130e+00 -2.06671193707721e+00  3.49104827090158e+00
 H  3.30113535265627e+00 -5.92345548276012e+00 -1.08744868707356e+00    -2.32882405555193e+00 -5.59457380222158e+00 -2.10372919988988e+00
 O  6.12841431001478e+00  6.97476774260710e-01  6.19991855552921e+00     1.64447716990440e-01 -4.13356919565182e-02 -2.65647644499312e-01
 H  6.13695035559847e+00  3.97690362991995e+00  2.40990226861242e+00     1.54031426333800e+00 -1.35205282595144e+00  1.09677664082016e-01
 H  3.26236190815138e+00  4.01934344399436e+00 -3.40438022856342e+00    -1.33786386440066e+00 -1.80061511955482e+00 -1.76079046597534e+00
 O  3.96325808682417e+00  7.64296430447599e+00  3.75990721232923e+00     5.79858066554666e-01  7.26440620397108e-01  2.84479197154451e-01
 H  5.00384395207349e+00  7.42972415101615e+00  6.55950070450762e-01     3.20405163407960e+00  8.01791769595235e-01 -1.58761514666682e+00
 H  2.48676438990489e+00 -2.07854820168822e+00  5.58658689323990e+00     1.24948026331166e+00  1.08635817828789e-01  4.81315078344420e-01
 O  4.65647597763045e+00  5.79179867419995e+00  5.96455872790414e+00     4.42501192174845e-01 -1.87005836768419e-01  4.56481451963200e-02
 H  3.00125652405273e+00  8.87398696138058e+00  7.43900052924000e+00     2.25590944045057e-01  1.42525285107572e+00 -1.11349126609851e+00
 H  7.87425572698647e+00  3.64425651668056e+00  1.41230476547601e-01     1.32587224642974e+00  1.20430141170446e-01 -1.34286874188088e+00
 O  4.59079918950599e+00  7.99579962798165e+00  2.62305224795069e+00    -3.49021474551976e-01 -7.65824458845323e-02  7.49745919706039e-01
 H  1.64877755737485e+00  6.70345212456425e+00  6.33290009821471e+00    -1.51616732412956e+00  7.06891869790665e-01 -1.47604672394175e+00
 H -7.40611664041650e-01  4.38002635173037e+00  4.85019026206474e+00     1.48813742866080e+00 -4.29669194888158e-01 -1.83435316362429e+00
 O  5.58952072163380e+00  6.27082010801217e+00  7.10832140601721e+00     2.40272063695807e-01 -1.17893147695089e-01  1.57285485571723e-01
 H  8.38047473313318e+00  9.82933181029695e-01  5.83624881269750e+00    -5.85254096434242e-02  2.09366653968713e+00  1.73558074086668e+00
 H  9.70409085462681e+00  8.40888336105973e+00  3.78184328548041e+00     1.88955682529255e+00  1.40200107151309e+00 -3.37724269603019e-01
 O  4.37933585450502e+00  9.82145936930788e+00  7.33883510853436e+00     3.00159850068816e-01  7.47902876822245e-01  3.42475660483697e-01
 H  3.98805709004129e+00  4.97935266400965e-01  1.75173423895427e+00     3.77017174635969e+00  3.91153132154791e+00 -4.08760629008959e-01
 H  8.73602692695368e+00  6.05784641758672e+00  6.54323869878952e-01    -2.41171158613555e+00  1.35067081559229e+00 -3.91227530051194e-01
 O  8.18648229331745e+00  4.70555611483073e+00  3.51015652308624e-01     4.25044351294758e-01  9.05699324317455e-02 -5.40888218509254e-03
 H -9.06607953689336e-01  1.17743356495666e+01  6.00804712706445e+00     3.90275971163833e-01  2.32115673736184e+00  1.52913636548210e+00
 H  7.21971222948202e+00  7.08524874778294e+00  3.10279197017288e+00     1.83269270739751e+00  8.39181872124528e-01  1.34458766163394e+00
 O  6.78613774828936e+00  4.75057614127964e+00  5.55122857625198e+00    -4.98453430402753e-01 -2.73574931966666e-01  4.11524186135026e-02
 H  5.61908441112028e+00  9.88486772839549e-01  4.99583252446739e+00    -2.21435435395700e+00 -1.37177514220875e+00 -2.01102077687717e+00
 H -4.54552971277857e+00  2.01738325440801e+00  1.82148523726892e+00    -2.55055415833291e-02 -1.76613474773784e+00  5.58574863122297e-01
 O  5.38073207107075e+00  4.22290769239867e+00  8.61816153323282e+00    -6.26218853330763e-02  5.32699334804754e-02  2.14378453503862e-01
 H  7.06969601415137e+00  1.75002758444106e+00  5.52885617455999e+00     2.70961554938557e-01  1.86590306407157e+00 -1.05628288616115e+00
 H  1.26523467869794e+01  2.34614509407940e+00  6.64901017784585e+00     1.25798684540635e+00  3.23310015208518e+00 -1.08887434632552e-01
 O  6.39013454905721e+00  1.18891941277876e+00  2.87721597940408e+00     3.62500166040227e-01  2.78042673320126e-01 -2.85779945421599e-01
 H -2.15922400807248e+00  6.16893029990494e+00  2.20914759546272e+00    -1.65969180420437e+00 -1.38829487407354e+00 -4.15032298875595e-01
 H  1.92499383485146e+00 -1.55255706359843e+00  4.48040212238969e+00     3.97426809207657e+00 -1.49786964675112e+00 -6.62403926357747e-01
 O  2.89225629052059e+00  4.59430774916480e-01  8.66993545360487e-01     2.05163483615971e-01  4.92112539516401e-02  2.07200588843272e-01
 H  6.75024326062054e+00  7.93084459966862e+00  5.81436473320117e+00     2.60902034385464e-01  1.02250556441472e+00  1.80395084257443e+00
 H  2.31170592529885e-01  9.10072206615864e+00  1.71848506595643e+00    -4.44877351020886e+00  1.81237837046046e+00  7.21334700128565e-01
 O  5.67454556243727e+00  5.85271490368568e+00  3.35263770430805e+00     7.19009761515361e-02 -4.00076970706617e-02 -6.96797151835664e-02
 H  9.34398449814026e+00 -3.58265794534156e+00  7.00520289385134e-01     5.19522480166997e-01 -1.78641005069023e+00  7.58987769098326e-01
 H -9.48000282488224e-01  4.12028390534181e+00  6.88273744354923e+00    -4.74975457414790e-01 -1.25348118602412e+00  6.22382026306419e-01
 O  1.84294146541890e+00  3.80698122714708e+00  9.45571351705266e-01     8.51940088741007e-01 -4.83275557106750e-02  8.70490882375820e-02
 H  6.17259519351713e+00 -1.24844991428857e+00  1.09097478401978e+01    -1.47506462357344e+00  3.73200243491875e+00  9.11964867079544e-02
 H  4.48313651409198e+00  3.84737647624829e+00  6.16292793369711e+00    -1.76194274596528e-01  3.06226173058148e+00 -3.52695956104389e+00
 O  6.89951953919589e+00  3.63591913133033e+00  5.00663103394118e+00    -4.70960917534473e-01  2.01190858468299e-02 -3.90725813541671e-01
 H  2.61009244395888e+00  4.32800687632121e+00  3.50057193133055e+00     1.47404966119806e+00 -1.54461499051733e+00  6.83423812445734e-01
 H  2.71408378807788e+00  5.76635593336600e+00  8.28120674994466e+00    -1.45298358086958e+00 -6.13229985347321e-01  1.36103803157210e+00
 O  7.81076945519302e+00  2.80748460343372e+00  3.36013010884796e+00     7.42005119778483e-02  5.88646448181846e-02 -1.16231407562720e-01
 H  5.49816128413535e+00  7.66700687762785e+00  3.69974148945271e+00     7.09245280574575e-01 -6.48544935109535e-01  5.04829489087161e-01
 H  6.27797340444181e+00  6.76759535043124e+00  4.68135829269648e+00    -1.25397728998928e+00  4.32232721918988e-02  6.04953189880034e-02
