   96
 7.63506828463274e+00  7.63506822016541e+00  7.63506822016541e+00
 O -3.69417037061796e+00 -4.78436008804311e+00  2.42074786451776e-01    -4.08942117371858e-01 -7.96784520265903e-01 -1.14901320810515e+00 
 H  1.75134934881178e+01  1.21447753584752e+01 -1.49348781600350e+01    -9.97577450983787e-01  4.97729758520605e-01  1.98445250013765e+00 
 H -3.86331790141612e+00 -3.07673110890318e+00  1.77941861848738e+00    -5.41295789349736e+00  1.56017777050639e+00  8.43709693192032e-01 
 O  9.95543447637552e+00  7.17062909006896e-02  5.90922170735415e+00    -2.49331895645961e-02 -2.70959475131443e-01  4.67357109482862e-02 
 H  3.40569370163642e+00  1.42464981054574e+01  2.90712185269689e+01     1.69395049355574e-01 -4.61641284047544e-01 -6.22422618416509e-01 
 H -7.22465658802983e-01 -1.71996852743908e+01  4.62071428575246e+00    -2.62181167179874e+00 -8.30061097718286e-01  8.97839234513576e-01 
 O -6.90769191684552e+00  3.21724608974243e+00 -1.34960110902801e+00     4.85708911134243e-01 -9.75418837435883e-02 -4.84464213247407e-01 
 H -4.07192484997225e+01  1.03302545298439e+01  1.59252650535904e+01    -1.56911954038353e+00  3.35570057349145e+00  1.61999847816006e+00 
 H  8.44664470271217e+00 -6.14408077477884e-01  2.26698647748169e+01    -3.25569664989572e+00  1.80528884896286e+00  2.47720360101677e+00 
 O  3.85844889321839e+00  1.79542488009773e+01  6.17632814333201e+00     4.35611063347021e-01  6.70484480240698e-01 -6.91121792446278e-02 
 H -6.47477007948056e+00  1.52338502242216e+01 -9.80119888322422e+00    -3.85753204625075e+00  2.34733357502181e+00  3.80116110376484e-01 
 H  1.28457035509384e+01  1.66094960419514e+00  9.48028265858018e+00     9.53723368436899e-01 -2.83018239452021e+00  9.88930618902543e-01 
 O  6.30621115104614e+00  1.43403728670883e+01  9.06589036372938e+00     1.85831240092290e-01  5.94418109270927e-01 -1.96476421623828e-01 
 H -8.77448168353827e-01  1.59111075816350e+01  1.70592529281305e+01     9.89590833348368e-01 -2.14079330519437e+00 -7.18558405338005e-01 
 H -8.59504057089981e+00 -1.22720666481413e+01  1.40311398943033e+01     4.70161711397531e-01  6.26012678585059e-01  2.43095347345312e+00 
 O  1.89947399354160e+01 -1.74263630341087e+01  1.21243955446189e+01    -4.97212615121707e-01 -6.43919709573430e-01 -2.42987870252378e-01 
 H  2.03915205516287e+01  1.03717479195312e+01  6.53030829921732e+00     1.05405849385245e+00  4.53083893146818e-01  1.36020705011766e+00 
 H  2.03493173529292e+00  2.34585995555380e+01 -3.12636670911473e+00    -1.42915442206426e+00  1.17733465529239e+00 -1.05219867431056e+00 
 O -4.59516278562682e+00  1.22969270890161e+01 -3.88661336458260e+00     1.01405492485253e-01 -3.30622364773127e-01 -2.79506918482648e-01 
 H  1.57013779272322e+01 -6.41210390327331e+00 -5.64961010128267e+00     2.52816253220827e+00 -6.57023627654556e+00  1.42794090335432e+00 
 H  4.32262308214874e+01 -3.54098204610221e+00  9.06751823689318e+00     1.82762433354611e+00 -2.50907975435518e+00  2.87486869677982e+00 
 O -5.58103917387097e+00  1.51960070975452e+01 -1.41595030504262e+01    -1.13643325212971e-01  9.72523346136323e-02 -8.06771542056087e-01 
 H  9.50842924241788e+00 -8.37123281123045e+00  7.82691501942479e+00     2.08539825039802e+00  1.17214264349280e+00 -2.73475430395594e+00 
 H  2.32310809704432e+01  6.03448203331434e+00 -7.43846905901953e+00     2.79417012445816e+00  8.70618046800469e-01  7.18479826595766e-01 
 O -5.79374172293091e+00  1.13222326863608e+00 -6.40377238713725e+00    -7.42378078219535e-01 -2.08185746245338e-01  5.84133537252275e-01 
 H  1.70627432361539e+01  5.66701547137579e+00 -1.26475618479165e+01     4.25721886085950e+00 -1.28604968739473e+00 -2.56464561877131e+00 
 H  4.91121004978139e-01  1.29490857130765e+01 -9.93701901296522e+00    -1.98453846293780e+00  2.91584747055558e+00 -2.95912233218549e+00 
 O  1.91654925010392e+01 -1.73961201698811e+01  6.95320807408596e+00    -4.49598631743035e-01 -4.75450711084804e-01  6.19191680498528e-01 
 H  9.66095702434822e+00  1.91822091797344e+01  1.05178118688667e+01     2.74789103229123e+00  8.59927181301016e-01 -4.31965909658083e-01 
 H  1.34938337612990e+01  2.20783044365888e+01  2.09266428663178e-01     9.11219805522009e-01 -3.30385685672099e+00 -2.57557975639284e+00 
 O  1.96975458911720e+00  2.00853143657217e+00 -3.22341295908194e+00    -3.34414541472924e-01 -3.53583934778677e-01  5.50758225818572e-01 
 H -5.96325035112050e+00 -9.33946489565035e+00  1.94597148933407e+01     4.46066444202815e-01 -4.09046814897421e+00 -2.14218875272986e+00 
 H -3.18964499513721e+01  1.32644841405452e+01  1.36883346588795e+01    -9.04302913877390e-01  1.39322269543173e+00 -7.34845000002422e-01 
 O -8.07849125980730e+00  2.22793306086740e+00 -9.78432819990100e+00     7.79413492832715e-01 -4.05268379272470e-01  7.73603547936397e-01 
 H -1.15277985224198e+01 -6.72154853981177e+00 -2.73301676774910e+00     9.66553515900328e-01  2.23145346752437e+00 -1.44915069664679e+00 
 H  2.37707727806727e+01  1.05521088167947e+00  2.00493087553731e+01    -2.81344350642875e+00  7.45043454766776e-01 -6.24397900941279e-01 
 O -8.26009585962810e+00  1.63066355072420e+00  8.84203934307147e+00     3.11557782422987e-01  6.12047623564023e-01  2.81357029610462e-01 
 H  4.81498850892460e+00 -1.94772658555280e+00  1.14450075525779e+01     1.15806686205677e+00 -7.90651925680463e-02  2.17086803014816e-01 
 H  2.12511749440939e+01  1.01759289705913e+01 -1.55763635182308e+01     1.53808494099117e+00  1.72309269216040e+00  2.54389231524264e+00 
 O  1.84846822260317e+01  1.83969081414806e+00  1.49108943125208e+00    -2.07330900150559e-02 -1.93783193846055e-01 -5.77767834674876e-01 
 H -1.31620646598326e+00 -1.12344917765174e+01  7.36539676780885e+00    -2.59241673350641e+00  9.62754763164692e-01 -2.35093485937597e+00 
 H -5.57117801538275e+00  4.35258154650706e+00  2.18606305563734e+01    -1.64756865316067e+00  3.38370738299690e+00  1.11876989387205e+00 
 O -7.80795936948617e-01  1.26307053976917e+01  2.81326527967371e+00    -2.98551454162523e-01  7.55482103819953e-02  4.82233333752241e-01 
 H  4.32530641572746e+00 -2.40293089061198e+01  2.23657713228324e+01    -1.57333521927541e+00 -1.05039435808696e+00  5.90646395368765e-01 
 H -1.83800833946195e+01  1.31016560378488e+01 -1.69511469725967e+00    -6.40013050095312e-01 -7.99388779736910e-01 -2.89337711033971e+00 
 O  4.38665799653890e+00  6.41341120526659e-01 -1.49175753173000e+01    -1.17484327885283e-01  2.71971182873885e-01  1.95164210456669e-01 
 H  5.12420472679005e+00  1.50519144277931e+01  1.46625778039963e+01     1.23031374428019e+00 -8.03021654506335e-02 -1.79238697089105e+00 
 H  5.40835098146296e+00  6.71501982953458e+00  4.80286854136444e+00    -3.91070593145316e+00 -2.05139559896918e+00 -8.16243903448857e-01 
 O  4.60309427025803e+00  1.17287528379622e+01  1.97321472629390e+01     6.41617427317741e-01 -8.40154596817877e-01 -1.14557205266475e+00 
 H  5.21569206192723e+00  1.63246255556025e+01  6.40630476246660e+00     3.77362043918122e+00  1.29264853485798e+00  1.86367065842666e+00 
 H  8.84759387368982e+00  1.34747881169172e+01 -6.48665107806301e+00    -3.45546606295969e+00 -1.51950881429570e-01  2.95229551731066e+00 
 O  1.73738097498922e+01 -2.71090413616719e+01  1.27477907674536e+01    -3.80830896746374e-01  6.30549063774134e-01  3.37247849136608e-01 
 H -2.18424529647241e+01  1.95881030683368e+01  1.29785525461977e+01    -4.42564165797050e-01 -1.16848977997238e+00 -1.08090651412968e+00 
 H  6.62966201599203e+00  2.31869422658388e+01  4.36836438139299e+00     2.69818026189276e+00  4.28527635910119e-01  3.33808993319868e+00 
 O  4.55812681584926e+00  3.68074259908028e+01  2.43487227505569e+01     4.12198327832348e-01 -2.06752973802927e-01  7.33491905623975e-01 
 H  4.03079869443564e+01  8.60958194653438e+00  1.79554488053008e+01     1.05033050149132e+00  4.72849227906453e-02 -2.35237877167661e+00 
 H -4.49347116042041e+00  2.70084835714506e+01  5.46271847054282e+00     1.19232982405448e+00 -1.21663766329669e+00 -1.30458325517879e+00 
 O -8.72961659594241e+00  1.12460804550286e+01  1.03302581645837e+01    -4.95597953272098e-01  7.01751970270463e-01 -5.83996986468525e-01 
 H  7.67843248989362e-02  1.46077513043393e+01  1.29218035960993e+01    -9.52295367697355e-01 -1.18983046077226e+00  1.03253779921012e+00 
 H  3.41890425433957e+00  3.78441911354618e+00 -1.01828375371898e+00     3.12639870935788e+00  3.68186719890039e+00  2.19916801832729e+00 
 O -7.78251998425330e+00  5.35364829802122e+00  2.48079474951565e+01    -3.25417981059312e-01  7.34068602817209e-01 -1.25210401850289e-01 
 H -1.53535400369173e+01  1.03678422357626e+01 -7.33103082657877e+00     1.48386183942561e+00 -7.75547738562758e-01  4.22850838103128e-01 
 H  1.06804000524959e+00  9.33553209637932e+00 -9.80115926832052e-01     1.55335722079585e+00  2.73988317851973e-01  1.46282455589657e+00 
 O  4.50558746803729e+00 -2.05342226317537e+00  2.26766618343602e+00     4.17983385729097e-01 -6.75653017552309e-01  1.26839424361343e-01 
 H  2.59676569799599e+01 -5.34821414755350e+00 -4.13780334681541e+00     2.25440477784412e+00  2.44433408692388e+00  3.85706162966743e+00 
 H  3.78573889304187e+01  1.58563325414578e+01  1.37069252483742e+01    -7.56148271997347e-01 -2.30958481192954e+00  2.73286508468292e+00 
 O  8.05287667920620e+00  7.67254770845637e+00  2.23772443238606e+00     6.58450419124688e-01 -6.67542089074113e-02  6.41867220155986e-01 
 H  9.51599117561034e+00 -1.24873280346193e+01 -2.25403789240063e+01     5.85469591997088e-01 -1.09937815788438e+00 -1.35361934307468e+00 
 H  2.55748584580276e+01 -1.30937767615896e+01 -2.46972166853630e+01     2.73544085619024e+00 -6.30418313801579e-03 -1.03556191831107e+00 
 O  1.54262264790893e+01 -5.32623321098797e+00  1.43957495707612e+01     6.40895254059768e-01  4.10790730684883e-01 -1.35554177544261e-01 
 H  1.78672338702422e+01  1.28971298809835e+01  2.03251185629949e+01    -6.77158912943772e-01 -2.47389940099778e-01 -3.40440979412094e+00 
 H  6.57212967485472e+00 -1.52063574589591e+00 -4.98228805152405e+00    -1.41871706792848e+00  5.42921881298432e-01 -8.10184648865469e-01 
 O -1.56191201503073e+01  1.95546636230112e+01  2.34681806616638e+01    -2.04628573070921e-01 -6.47017731710787e-01  7.32479952211790e-02 
 H -1.24808472824059e+01 -1.09129171266187e+00  2.40353405932735e+01    -2.81732817713258e+00  1.49855760712203e+00  4.31351418344128e+00 
 H  3.18450139322482e+01 -3.74679726664443e+00 -1.46428839690591e-01     2.45518461154892e+00 -7.53184491008339e-01  2.22133844692096e+00 
 O  1.47029167749321e+01  9.12786127828339e+00 -7.61374345344345e+00     3.15993325556535e-01  8.13630550810347e-02  2.45797312365889e-01 
 H -3.22405342345044e+00  1.47944839562836e+01  4.87189101745695e+00    -2.07729356848749e+00 -2.22097170952772e+00  2.10964997865305e+00 
 H  1.04477952241827e+01  2.38191242254576e+01  4.59966620542356e+01     9.43623106748797e-01  2.64944625753065e-01 -1.64264430180906e-01 
 O  1.38185284536564e+00 -1.55546490100020e+01  1.11343606892507e+01    -8.23648332735623e-01 -5.40368025682602e-01 -3.88371069390684e-01 
 H  7.27045497702301e+00  1.03108591517238e+01 -1.27471066519928e+01     1.86482615947413e+00 -5.31646402918949e-02 -1.53304852611034e+00 
 H  3.23972802632599e+01 -4.54276307860281e+00 -3.15882590579145e+01     3.18472477663720e+00  7.32836840064968e-01  3.48154571532981e-02 
 O  1.20565751848901e+01  7.15215446332896e+00  3.19640576301119e+00    -3.10356445238098e-01 -1.79638947386359e-01  4.69488146355985e-01 
 H  1.23013186508664e+01  1.83411356289584e+01 -2.87881097778079e+01    -5.69643515204179e-01  1.27273427811435e+00  1.75364068484305e+00 
 H -6.72726513593790e+00  2.56755894175837e+01 -1.78850880349430e+01    -1.59341543336557e+00  1.44788062960353e+00 -1.65654566435450e+00 
 O -4.83070347867712e+00 -1.38815843282412e+01 -1.12400117896051e+01     1.59201676282108e-01  1.27758077716438e+00 -6.16097607758560e-01 
 H  1.08709428524645e+01  2.66279986556474e+01 -3.35737889987443e+00    -1.11676643130410e+00 -5.12490211144895e-02  3.56959156378400e+00 
 H -4.07484213015521e+00  9.99751669240196e+00 -1.03960886146673e+01    -1.30366273300980e+00  1.75855167269121e+00  3.29793615433986e-01 
 O  1.61382636800820e+01  3.54858247499543e+00 -1.34613113306689e+01    -2.13766992820281e-01  3.92976848469637e-01 -1.32259973102247e-01 
 H -1.59669652376173e-01  1.86925062815483e+01 -2.54533195557156e+00     2.37852411766860e+00 -6.94994213979185e-01 -1.00689954758169e-01 
 H  8.38606243173525e+00  3.49335073297477e+01  3.06675373945840e+00     4.31379787071678e-01  3.49785692055834e+00 -1.98276736975571e+00 
 O  5.54451681157014e+00  8.98791572867007e+00  2.35304297285349e+01    -3.11353971738945e-01 -1.86911768104875e-01 -3.99120529634955e-01 
 H  2.27937220237109e+01 -2.25719147547583e+01  3.81908857138460e+01     8.74618538816281e-01  9.57664432310290e-01  1.39836628121695e-01 
 H  2.04612503254233e+01  1.24694425603668e+01 -4.85189371543562e-01     1.54075974297376e+00 -1.11406738239047e+00  2.60827955345436e+00 
 O  2.18181777021334e+01  3.34169556641902e+00 -1.41960373551086e+01     8.29434616665688e-02 -3.34871427001841e-01 -5.60686768533757e-02 
 H  1.13281905220516e+01  1.44325557729767e+01  2.22031412068745e+00    -1.96426817999572e+00  4.73836973716407e+00  3.65811627479119e+00 
 H  1.28177491122579e+01 -2.18611114295571e+01 -1.99178934623830e+01     1.15815877492335e+00  2.51331692344374e+00 -3.55242157598435e-01 
