   96
 7.92185331262413e+00  7.92185324573547e+00  7.92185324573547e+00
 O  3.01340335036161e+00 -8.89856923078296e+00  1.67018907000374e+01    -5.42010186635946e-01  1.16268939190934e-01 -4.38685690311746e-01 
 H -7.33047725835157e+00 -1.24647237850047e+00  7.40949181319471e+00    -1.15892764812548e+00  1.86093135846095e+00 -2.22901750264399e+00 
 H  2.69899574228285e+01 -1.48516520461777e+01 -1.22129070789460e+01    -2.05407664259739e-02  1.26134389050516e+00  1.43475619067197e+00 
 O  1.09939032070471e+01 -1.00582290522337e+01 -8.80493000624525e-02    -6.94219365226259e-01 -5.50227148991252e-01  1.45004662325117e-01 
 H  2.63651194175158e+01 -2.43517549491956e+00  6.59503932207024e+00     1.63633102944998e-01 -1.18440324693065e+00  6.41141515024257e-01 
 H  3.52159582792033e+00 -4.58302927435575e+00 -5.67480792316667e-01    -1.01728046193337e+00 -3.52892384543647e+00 -2.36300947659602e+00 
 O  1.01735180248175e+01  5.40439728962779e+00  4.29970568985152e+00     6.13290366549282e-01 -6.36560515943538e-01  7.93887315738838e-01 
 H -4.63925777787078e+00  2.05894890672068e+01  3.23907629189881e+00    -2.84368164215170e+00 -4.28582504239952e+00 -2.62219393655954e+00 
 H -1.37917113513821e+00  1.25245176572210e+01  9.68066909507502e+00    -2.06826153213193e+00  9.42389841773474e-01 -1.73288134887517e+00 
 O  1.25828031181407e+00  4.95496434794401e+00  5.23989641200927e+00    -1.21513014404721e-01  6.32220243087919e-01 -2.60509903183415e-01 
 H  1.70617486508819e+01 -1.14807503391088e+01 -6.94651752183130e+00    -5.64217826822703e-01 -1.19454122162928e+00  7.81053695356778e-01 
 H -2.00833703949283e+00  1.50026389591456e+01  9.66092617524860e+00    -9.92292267516307e-01 -1.03448770660623e+00  2.31988514092777e+00 
 O -4.14854942291456e+00  1.66861331580416e+01  5.32989329756921e+00     4.66407917927879e-01  5.25217979636743e-01  8.99430727113941e-02 
 H  2.77142136466055e+01  5.92824118691938e+00  3.02330713126983e+01    -6.68894909505617e-01  2.37937480189492e+00  1.00080069447647e+00 
 H -1.56519000859003e+01 -1.65870233051725e+01 -6.52695179838382e+00    -4.85136481906744e-01 -8.48222718161545e-01 -7.24430192572853e-01 
 O  3.17675782980637e+01  2.30298151159380e+01  2.92253317922768e+01     4.27506163994645e-01 -3.99407040017903e-02 -6.09369144309114e-02 
 H  2.38552249309074e+01  4.46965225546756e+00 -3.90828512026229e-01    -2.16302659299288e+00  2.18565100656158e+00  1.69518685010051e-01 
 H  6.99420141621191e+00 -3.06577989838815e+01 -3.55794454995157e+00     1.21013215837095e+00 -1.62374873870762e+00  3.03053578094344e-01 
 O -7.42200222852910e+00 -6.28018952789203e+00 -3.94552718034370e-01     2.56101197040182e-01 -2.78304465666451e-01 -5.69500262199588e-01 
 H  1.21010064036354e+01  5.63461955261840e+00  4.16971090232749e-02     1.39571590714000e+00 -1.73981447731310e+00 -1.01743759001636e+00 
 H  2.10152460114362e+01 -7.70225826804231e+00  2.70594318981079e+01     5.83146836677882e-01  1.94468233544381e+00  1.23484209308075e+00 
 O  3.08997524833060e+00 -9.86379460408352e+00  2.13203341675343e+00    -2.02628301099153e-01  4.84593345420678e-01  3.97262861936132e-02 
 H  1.98906296562292e+01  7.39864785870747e+00  1.43203602865008e+01     1.53554981269025e+00  9.30452165808037e-01 -9.07423077361526e-01 
 H  2.67086119879637e+01  8.08387801462515e+00  1.37059731895996e+01     6.01405506846710e-01 -7.88457304440645e-02 -3.66553059019517e+00 
 O -6.45713478095076e+00  8.65195753759288e+00 -3.43739619775723e+00     1.17451403593298e+00  7.97204171326500e-01  4.10551224241937e-02 
 H  9.83763458499581e+00 -1.59266688284094e+01  9.12296241849722e+00     1.48903318051137e-01 -2.26067538235143e+00  8.90572041457736e-01 
 H -4.31034543992194e+00  2.79669719111307e+01 -1.45612887647847e+00     3.27895240101643e+00  1.51525153086464e+00 -2.63135323764386e+00 
 O  2.06130037459657e+01 -1.67753351661592e+00 -1.10524032628893e+01    -6.15479438090211e-01 -2.18297878534993e-01 -1.28578729407705e-01 
 H  8.57147036608147e+00  2.58672573616491e+01 -2.47718268143028e+00    -5.40944336425982e-01  7.77425977120364e-01 -3.88502735001684e-01 
 H  8.35835400193647e+00 -2.06835826000778e+01  2.39597235010796e+00    -8.24753082394087e-01 -1.85731457801033e+00  8.97927080690360e-02 
 O -8.99096992256043e+00  6.04461009910568e+00 -1.55389913288490e+01    -2.68149775795369e-01 -9.88363836412649e-01  8.28326707230599e-01 
 H -1.07588282012731e+01  1.07790903706079e+00 -7.48688589080317e+00     4.34821484343273e+00 -1.54963590940964e+00  4.26373537068617e+00 
 H  1.18701632096778e-01 -1.49016676253215e+01 -7.11809665857487e+00     3.02315270862418e-01  1.39268620800479e+00  2.30165163838325e+00 
 O  2.25952745041626e+01  1.98201046408295e+01  2.87999390649144e+01     1.85653465672111e-01 -9.64325686992151e-02  7.68164059669899e-02 
 H  2.31463487539016e+01 -4.89075777555373e+00  6.61006654604337e+00    -1.38669343851769e+00  1.01239208934973e+00  1.01976803017871e+00 
 H  8.53130656956900e+00 -1.82982776054606e+01 -1.51203381433024e+01    -4.62420146654021e-01  6.09792271705687e-01  2.04082632588123e+00 
 O  3.83233747579521e+00  1.87665149717839e+01  1.73106463837943e+01     2.33839118074956e-01  8.17892926422733e-02  9.70072543462111e-01 
 H -1.89334576246561e+01 -8.03140672034009e+00  1.62312912945080e-01     2.02782419253482e+00 -5.98250872369567e-01 -1.12996559054691e-02 
 H  1.17098327173096e+01  1.89076071674110e+00 -1.61886102387661e+01    -1.28363008859215e+00  1.50188992925184e+00 -1.31504186198870e+00 
 O  1.51181795135380e+01  4.98907609530910e+00  4.35161043339714e-01    -6.66136175932023e-01  3.83391301820283e-03 -9.39666658282872e-02 
 H -1.89489873119489e+00 -1.44468286268743e+01  5.61366957559984e+00    -5.64083966538354e+00 -4.52218721457328e+00  1.14678454935639e+00 
 H  2.24407881192161e+01 -1.94507319144502e+01  2.83659461635692e+00     1.81464746284447e+00  6.99279948010958e-01 -9.63372376179765e-01 
 O  9.65749980567573e+00  1.52795990433810e+01  1.10255285682607e+01     4.61094636580849e-01  2.43033972573873e-01 -1.94839781953789e-01 
 H -8.79786325214921e+00 -7.53894662374124e+00 -1.43939242127187e+00     1.61537859287559e+00 -1.41993573349896e+00  1.37397243082859e+00 
 H  2.50006345894338e-01  1.61441243590353e+01  4.53371094667443e+00     1.93903772281884e+00  1.30566928795098e+00  6.65505826524241e-01 
 O -1.97426765274404e+01  1.20270385773814e+01 -6.58960500350636e+00    -2.78331834927788e-01 -1.64640843456681e-02 -7.94643720257972e-02 
 H -5.63225168089054e-01 -1.43571559542224e+01  6.77320369862211e+00    -2.88983293301200e+00 -1.27432391272030e+00 -3.96974554191410e+00 
 H  2.52397937531296e+01  1.18636531196009e+01  4.11187787662673e+00    -2.49764875625831e+00  2.67281432460628e+00 -4.31720030861604e+00 
 O  2.17687643004056e+00 -4.46296445041033e+00  1.69116391618412e+01     1.47633934175623e-01 -4.82291962652031e-01 -2.38051962486693e-01 
 H  9.02714309394171e+00 -1.37775261655291e+00  2.47651297461845e+01    -3.47607215666026e-01 -1.41551652928272e+00 -4.28899448505903e+00 
 H -1.76346997070994e+01 -6.70708888919011e+00 -8.99960178897179e+00     1.08550389020142e+00 -3.22461967376405e-01  3.39494181636779e+00 
 O -1.24744272546454e+00  8.36641492780534e+00  1.83139552699463e+01     1.15598288186275e+00 -1.00486645603635e-01 -6.46319984362734e-01 
 H -2.75768254669502e+01 -6.76840976750824e+00  3.04602007685688e+01     4.66665806719239e+00 -3.98282895681815e-01  3.89179507868369e-01 
 H  9.25123934795392e+00 -1.50787568656545e+00  1.45445614280116e+01    -8.08842900264719e-01  1.67431964482091e+00  7.92392880413420e-01 
 O -1.49487681356579e-01  1.15830963125250e+01  3.87267976723490e+00    -9.32198931963117e-02  1.71699292135421e-01 -5.76311859309015e-01 
 H  5.13832613969600e+00 -1.43211701451876e+00 -8.69119517215441e+00    -1.08111877514350e+00  3.97520071368018e+00 -1.26700978706945e+00 
 H -3.09724314690770e+00 -2.00306993902574e-01 -2.22846086463966e+01     1.34777966652024e+00  1.74682406586179e+00 -2.45032115941894e+00 
 O -7.44568097952955e+00  1.30564743113820e+01  2.38819689965257e+00    -2.14812302070548e-01  6.83535854685194e-01  4.18346337458047e-01 
 H  1.26738040650277e+01 -4.20443233102380e+00  4.56500191426021e+00    -2.35853353392904e+00 -6.94877481438983e-01  3.16445489826085e-01 
 H  3.16942998263083e+00  1.96549117751220e+01  1.97519960322405e+01     3.68181376062403e+00  1.00740719733117e+00 -2.75567991450393e+00 
 O -8.14495479737544e-01  1.04811959718066e+01 -2.68256489968726e+01     4.90550282895912e-01 -6.74035465802814e-01  5.05497088953956e-01 
 H  1.40689263781567e+00  1.13001011259701e+01  2.18191219474458e+01    -2.27672967571770e+00 -1.58298681247494e-01 -6.39714413286301e-01 
 H -4.54380463529813e+00 -8.18929319590623e-01 -1.64558403626456e+01    -2.72715739119073e+00 -1.39210659526425e+00 -5.66208292364988e-01 
 O -3.77392571270882e+00 -1.02705568002530e+01  1.16342387133123e+01    -6.14638028569139e-02  3.69136650634480e-01  1.21341422842401e+00 
 H  1.05242115057577e+01  1.16432719121593e+01  4.24723627975432e+01     2.90443416621519e+00 -1.77143893223201e+00 -2.36609586700779e+00 
 H  2.19950941679269e+01 -1.77212283944863e+01 -1.07517523496883e+01    -2.33020736985041e+00 -3.31919760524864e-01  3.88887196097933e-01 
 O  1.68609397655305e+00  1.69110326504893e+01 -1.42211545263224e+00     4.85786635727681e-01  1.09839699040340e+00 -8.25443899928260e-02 
 H  9.80838431751858e+00  6.21502008644345e+00 -5.67359547399334e+00    -2.03419427804607e+00 -2.04220875540542e+00 -6.29299748057675e-01 
 H  1.16871754796995e+01  7.79616443005936e+00  4.40367993823639e+01    -2.67767712216355e-01 -2.12029473920327e-01 -2.09573337673275e+00 
 O  4.33684804533525e+00  1.07534544605720e+01  6.27012265779375e+00    -1.92637948590090e-01  3.56563680239880e-01 -6.93436773535424e-01 
 H -9.31970279672612e+00  1.99357808438875e+01 -8.04144471921241e-01    -5.98190184099946e-01 -5.37361579360290e+00  1.71282031790954e+00 
 H  2.85013439117056e+01  6.95914961027695e-01  1.82179573581871e+01    -2.13313312460430e+00  7.09577598247955e-01 -5.43375368477626e-01 
 O -2.90583435757458e+00  8.09145318851511e+00  6.12261133927016e+00     5.82494605299631e-02  1.41874332318781e-01  2.50250479469844e-01 
 H  1.81255740589571e+01 -2.91489785328943e+01  9.74837287287772e+00     2.16162388006776e-01 -4.03723581436763e+00  2.79434273825959e+00 
 H  4.70832774079422e+00 -1.91072417717655e+01  3.87067486402059e+01    -1.02106022109765e+00 -9.25312608031175e-02  3.72682217111161e+00 
 O -1.08335270491058e+00  1.35494062769376e+01 -9.80712913532131e+00     5.93723486031056e-01  4.31363280852964e-01 -5.09278802746682e-01 
 H  5.95070542077254e+00  1.15711458404153e+01  1.41000911984527e+01    -2.41299808017721e+00  3.66986281598297e+00  5.13508276908716e-01 
 H  3.01762345430118e+01  1.52023719297856e+01 -9.28208323172413e+00    -8.17611651164408e-01  2.91533179605391e-01  1.91119812619393e+00 
 O  2.59782561355230e+00 -1.39978414717456e+01 -1.17574106506349e+01     3.98423001230145e-01  1.31134696273101e-02 -8.44752010369269e-01 
 H  1.50503443839618e+01 -2.48898992932200e+01 -3.73354977928564e+00    -1.54839869954805e+00 -2.04869695761207e+00  5.11255120137291e+00 
 H -2.40369988210710e+00 -1.08829020725031e+01 -4.40886333880531e+00    -2.14869414776747e+00  1.28222065425076e+00  8.41349524043221e-02 
 O  2.19379052901822e+01  1.08222337547699e+01  7.10759266060832e+00     4.46811748131767e-01 -7.28725017526519e-01  2.00726885504009e-01 
 H  1.27698378980972e+01  6.26704115708975e+00  1.67018214080859e+01    -3.25254039696123e-01  1.40115344870279e+00  5.56753387177040e-01 
 H  3.71418388640812e+01  2.77419324766356e+00 -7.67541656387228e+00    -2.93672907542025e+00  2.41541802964699e+00 -1.72012416113030e+00 
 O -2.54309344442070e+00 -1.10571751808590e+00  3.62630550045240e+00    -1.18412701660011e+00 -8.16336243328416e-01  8.93835378649116e-02 
 H  1.17404100194665e+00  1.03279505432862e+01  8.51751245269990e+00    -3.87759957949719e-01  1.06619421922930e+00  2.61203329967175e+00 
 H -2.43763638409024e+00  2.81079073563405e+01 -5.51751421583194e+00     1.37530822855457e+00  1.59368687315340e+00 -4.24039825250278e+00 
 O -4.34661950267973e+00 -8.06465485830719e+00  1.01665134543503e+01    -2.27842377607522e-01  3.37523258206232e-01 -6.78656067080794e-02 
 H  1.40481219816295e+01 -6.16653999515830e+00  3.63773686041806e+00    -2.14682898396822e+00 -3.87218107861298e-01 -1.44316857690874e+00 
 H  1.85246538776746e+01 -1.57027810745498e+01 -8.55934736766646e+00    -3.49811038132510e+00 -1.44763913337628e+00 -6.36759692836627e-01 
 O  2.52481696873183e+01 -1.77443493011814e+01  7.95102059827419e+00     7.05368188912746e-02 -3.85739089981365e-01  3.51117429481275e-01 
 H -6.14209074445284e+00 -6.81299514360013e+00 -1.26466708446374e+01     1.21916203788348e+00 -2.53220982051812e+00  9.06287814415931e-01 
 H -7.61168926797211e+00  8.04033076930868e+00 -2.50985917807149e+01    -1.41832136212968e+00 -3.92094140797607e-01  2.41043574953670e+00 
 O  8.23923759816119e+00 -9.36920421435039e+00 -3.45238054431384e+00    -6.81588411419931e-01  4.92732139260175e-02 -8.13286842168159e-02 
 H -1.25549886747170e+01  9.29227820692558e+00 -6.77702571077797e+00     1.91369538341319e+00  2.44566249066987e+00  1.17454581858228e+00 
 H  7.27615581401184e+00 -2.14147735523374e+01 -6.73895485790669e+00    -1.98465790720754e+00 -5.43434151870491e-01 -3.07151968956027e+00 
