6

N      1.2819      3.1742      8.7438
N      2.1680      5.4246      8.7657
H      2.5199      6.4680      8.5457
C      1.8487      4.3460      9.4604
O      2.5353      4.2550     10.6863
N      0.1780      2.9105      9.0918
6

N      1.3716      3.7288      8.6775
N      2.7715      5.3465      8.8205
H      2.3070      6.2135      8.5065
C      2.5580      4.0791      9.3788
O      2.7044      3.5562     10.6895
N      0.3133      3.4252      9.0185
6

N      1.2181      3.9066      8.7474
N      2.8127      5.6250      9.5337
H      2.0714      6.4681      8.8657
C      2.5097      4.3402      9.8583
O      2.6631      3.4495     10.8439
N      0.3516      4.2412      9.2593
