3

O     14.6726     45.7379     26.3640
C     14.9743     45.7846     25.1444
N     14.9873     46.2796     23.9037
3

O     26.5900     23.7737     20.0393
C     25.9190     24.6746     20.6594
N     25.5022     25.5590     21.0600
3

C      5.9058     60.3771      8.8956
N      6.8399     59.9591      8.4163
O      4.9015     60.9922      9.4008
3

C      0.3294     50.0877     24.1169
N      0.5649     48.9458     23.8880
O     -0.0066     51.1196     24.7841
3

C     16.3012     40.3370     25.6489
O     16.7382     39.2901     25.1572
N     15.8794     41.2262     26.2274
3

O     14.4875     45.4312     26.7842
C     14.9249     45.5360     25.6109
N     15.3540     45.6482     24.3336
3

O     27.1526     23.9771     19.9339
C     26.4694     25.0541     20.3290
N     26.0355     26.0015     20.6410
3

C      5.7930     59.9190      8.9104
N      6.3704     59.4488      8.0173
O      5.1407     60.2955      9.9165
3

C      0.3073     50.0021     24.0734
N      0.4184     48.9291     23.6421
O      0.2214     51.1815     24.4628
3

C     16.0172     40.0866     25.6123
O     16.7256     39.4299     24.7364
N     15.3197     40.7964     26.1826
3

O     14.0969     45.7744     26.8265
C     14.9447     45.5054     25.7534
N     15.7456     45.1903     24.9947
3

O     27.7982     23.9941     20.1753
C     27.0092     25.1481     20.0172
N     26.3332     25.9633     19.8336
3

C      6.4104     59.9625      8.5445
N      7.2775     60.1159      7.8349
O      5.4865     59.9388      9.5015
3

C      0.8027     50.2505     23.5649
N      0.5535     49.0359     23.3220
O      0.6934     51.4903     23.7946
3

C     16.2298     40.1481     25.3681
O     17.2082     39.6156     24.7787
N     15.3237     40.6077     25.9430
3

O     14.5277     45.3944     26.4150
C     15.4882     45.5087     25.6143
N     16.5040     45.4461     24.9688
3

C      6.6883     60.0322      8.2665
N      7.4700     60.0767      7.4406
O      5.7008     60.1246      9.1417
3

N     32.5349     24.0837      3.7205
O     30.6319     25.8062      3.7186
C     31.6719     25.1032      3.6569
3

C      0.9177     50.4781     23.8493
N      1.2212     49.5104     23.5364
O      0.5003     51.7409     23.9509
3

C     16.5288     39.7218     25.0024
O     17.5178     39.0661     24.3754
N     15.7544     40.3673     25.4630
3

O     14.3083     45.5559     26.3931
C     15.3257     45.7512     25.6234
N     16.3706     45.2170     25.0258
3

N     19.0198     23.1464     13.1828
O     18.2714     23.3425     10.6654
C     18.5900     23.4262     11.9225
3

C      7.1099     59.7228      8.3841
N      7.9554     59.2448      7.7892
O      6.2014     60.1558      9.1545
3

N     32.7558     24.9252      3.7710
O     30.6907     26.0601      3.9077
C     31.5290     25.0496      3.1420
3

C      0.6325     50.5059     23.4756
N      1.5380     50.1678     24.1966
O     -0.1954     51.4179     23.0168
3

C     16.4948     39.3298     24.6550
O     17.6122     39.4992     24.0243
N     15.5908     39.3082     25.2447
3

O     14.5064     44.7617     26.1292
C     15.1206     45.2384     25.2077
N     16.2128     44.8853     24.6062
3

N     19.1501     23.1791     13.3901
O     17.9583     23.3587     11.1404
C     18.6990     23.1561     12.0722
3

C      6.9549     59.6683      7.9562
N      7.4129     59.4387      6.9534
O      6.5806     60.3989      9.0685
3

C      0.5284     50.9767     23.8886
N      1.0544     50.8500     24.8548
O      0.0306     50.9086     22.4977
3

C     16.5367     39.1879     24.9723
O     17.5103     39.4891     24.0859
N     15.7137     38.7988     25.5940
3

O     14.5834     44.3605     25.4357
C     15.5461     44.8213     24.9542
N     16.6815     45.1346     24.6090
3

N     19.0062     23.2464     13.0667
O     18.4111     24.5721     10.9463
C     18.6940     23.9466     12.1255
3

C      7.0401     59.9710      7.6360
N      7.2249     59.5594      6.6788
O      6.9308     60.5817      8.8842
3

C      0.4257     50.7456     23.6863
N      0.2227     50.9388     24.7351
O      0.7890     50.6031     22.4479
3

C     16.2613     39.2182     24.5644
O     17.5491     39.0777     24.1547
N     15.2386     39.3415     24.9331
3

O     14.3986     44.3989     25.4550
C     15.4228     44.8061     24.8280
N     16.4550     44.8750     24.4140
3

N     18.5518     22.9307     12.7823
O     18.0679     24.2075     10.6469
C     18.2805     23.5324     11.6346
3

C      0.9091     50.8717     23.8313
N      0.2579     51.3715     24.5263
O      1.7512     50.3652     22.9389
3

C     16.4099     38.9379     24.5675
O     17.2298     38.2759     23.8497
N     15.7241     39.5619     25.2860
3

O     14.0718     44.1983     25.5223
C     14.9868     44.7649     24.8122
N     16.2202     44.5898     24.4415
3

N     18.6321     23.4140     13.0984
O     17.4636     23.7714     10.9875
C     18.1047     23.3978     12.0139
3

C      1.1322     51.0812     23.9434
N      0.6811     51.9936     24.2956
O      1.7634     50.0712     23.3840
3

O     32.6244     58.2423      3.1613
N     31.0020     59.6421      1.8268
C     31.6262     59.0364      2.8419
3

O     14.0825     44.4732     25.6107
C     15.1685     44.2188     25.1003
N     16.2187     44.2321     24.7051
3

O     24.9737      8.3111     17.6098
C     25.7681      8.0703     16.5857
N     26.4098      7.9532     15.7010
3

N     18.7390     23.3932     13.3466
O     17.4099     23.6711     11.2786
C     18.0780     23.5312     12.3538
3

C      1.0247     51.1992     23.9485
N      0.8287     52.2593     24.0921
O      1.3298     49.9673     23.8408
3

O     32.6246     57.6919      2.9655
N     31.5199     59.4288      2.4160
C     31.6667     58.5024      3.3086
3

O     13.7411     44.7624     25.2375
C     14.9590     44.4996     24.9518
N     16.1382     44.5149     24.4865
3

O     24.4087      8.1962     17.6857
C     25.7987      8.2367     17.1512
N     26.7264      8.3360     16.6648
3

N     19.3635     23.7148     13.1051
O     17.6377     23.8475     11.3279
C     18.5188     23.7581     12.2409
3

C      7.8937     59.8623      7.4794
N      7.3985     59.5994      6.4898
O      8.4834     60.0318      8.6281
3

N     21.0882     35.8402     25.8377
O     21.1222     33.6138     24.5931
C     20.9310     34.8785     25.3812
3

C      0.9389     51.4178     24.1226
N      0.9219     52.6721     24.1495
O      1.1498     50.1782     24.1031
3

O     13.5806     45.2979     24.9836
C     14.8105     45.0307     25.1662
N     16.0320     44.8542     25.3409
3

N     18.9404     23.4069     13.3975
O     17.8544     23.1232     11.1969
C     18.3498     23.4773     12.2609
3

C      7.6137     59.6724      7.7165
N      7.5613     59.2227      6.6826
O      7.7961     59.9457      8.9808
3

N     19.7902     35.1769     26.0649
O     21.3535     33.9297     24.5238
C     20.5230     34.6181     25.4554
3

C      0.9901     51.9315     24.6283
N      0.8038     53.0008     24.9452
O      1.3882     50.7485     24.3341
3

O     13.7434     45.2943     24.5647
C     14.8704     44.9316     25.1104
N     16.1513     44.5084     25.2348
3

N     18.8011     23.8783     12.9855
O     17.9335     23.6333     10.6911
C     18.1333     23.7961     11.8975
3

C      8.0621     59.5372      7.4034
N      8.2480     58.7828      6.5535
O      7.8327     60.5139      8.1978
3

N     20.3259     35.6861     26.3249
O     21.0445     34.2896     24.4077
C     20.4077     35.1235     25.4047
3

C      1.9111     51.6449     24.8660
N      1.9184     52.7308     25.3079
O      1.8796     50.4291     24.5068
3

O     14.0798     46.0742     25.1554
C     14.9312     45.1733     24.8442
N     15.8438     44.4139     24.3582
3

N     18.7029     23.5207     13.3097
O     17.9833     23.6120     10.8986
C     18.3920     23.6700     12.1065
3

C      8.2923     59.3626      7.1677
N      8.5849     58.2772      7.0792
O      7.8695     60.5666      7.5784
3

C     21.0011     52.8486      7.6863
O     22.3063     52.7808      7.8704
N     19.8772     52.8538      7.7901
3

C      2.2911     50.9066     25.2606
N      2.3220     52.0264     25.3897
O      2.1854     49.6175     24.9204
3

O     14.4237     46.0150     24.9312
C     15.2855     45.1438     24.7145
N     16.1083     44.2264     24.2433
3

N     18.4687     23.7058     13.0339
O     17.3875     23.7943     10.6978
C     18.0085     23.5513     11.8332
3

C      8.3863     59.3504      7.5085
N      8.9695     58.3881      7.3868
O      7.8087     60.5227      7.5197
3

C     21.0321     53.6462      7.5334
O     22.2572     53.5643      8.0109
N     19.9771     53.5398      7.0953
3

C      2.0190     50.5532     25.5839
N      2.6781     51.7060     25.5884
O      1.9033     49.4375     25.1822
3

O     14.5223     45.7718     24.7698
C     15.4937     44.9567     24.6744
N     16.4172     44.1752     24.7186
3

O     24.7833      8.9578     17.2218
C     25.4723      8.1489     16.4793
N     26.0804      7.4078     15.8541
3

N     18.3697     23.4376     13.1883
O     17.7953     23.4506     10.7748
C     18.0304     23.6041     11.9648
3

C      8.8494     59.3043      7.1398
N      9.5260     58.4261      7.1285
O      8.0252     60.3009      7.0674
3

C     20.9386     53.9013      7.6136
O     22.2020     53.6893      7.9352
N     19.8561     54.1676      7.5782
3

C      1.6030     50.4727     26.0129
N      1.9240     51.5431     25.6241
O      1.5325     49.2622     26.3124
3

O     14.7925     45.7175     25.2683
C     15.8697     45.0864     25.0347
N     16.7771     44.2191     24.6003
3

O     24.6919      8.4883     17.0878
C     25.6041      7.8814     16.4380
N     26.4020      7.3776     15.8146
3

N     18.0447     23.4481     12.7817
O     17.0718     23.6372     10.5605
C     17.6173     23.5023     11.7105
3

C      9.1132     58.8883      6.7572
N      9.5956     58.0289      6.2626
O      8.5655     59.8295      7.4366
3

C     21.6321     53.5476      7.8502
O     22.9196     53.7569      7.8161
N     20.4998     53.4145      7.9191
3

C      2.0122     50.6401     26.2779
N      2.5326     51.5450     25.6707
O      1.5293     49.5183     26.7548
3

N     12.6913     66.9918     27.7948
O     12.1616     65.1550     29.3475
C     12.4156     66.1799     28.4943
3

O     15.6468     45.5666     26.0230
C     16.1905     45.0262     25.0262
N     16.8255     44.4321     24.0127
3

O     24.7656      8.8432     16.6391
C     25.8141      8.3123     16.0716
N     26.7335      7.8727     15.5421
3

N     18.3219     23.5088     12.6990
O     17.2491     23.3899     10.4995
C     17.7744     23.4667     11.6186
3

C      8.9388     59.4713      7.1919
N      9.7784     59.1509      6.2763
O      8.0660     59.8522      7.9815
3

C     21.9323     53.7662      8.0136
O     23.2047     53.5808      7.9254
N     20.7922     53.8433      8.0063
3

N     13.5979     67.5220     27.4260
O     12.7128     65.6733     28.7965
C     13.1203     66.5796     27.9840
