9

N      3.1255     45.8995     15.2108
O      4.3991     44.9422     17.0570
O      2.3453     44.9140     17.7239
H      3.6704     42.7667     15.8586
H      1.9627     45.8913     17.7304
H      3.7692     46.4674     14.7249
C      3.3836     44.8473     16.3031
O      2.8939     43.3315     15.9917
H      2.2967     46.3178     15.6976
