5

H     15.7924      4.7791      2.0907
O     15.8407      5.6929      0.7346
H     17.7217      4.2548     -0.1007
C     16.6080      4.8606      1.3312
O     17.8183      4.2448      1.0134
5

H     20.6221     56.8738     24.8239
C     19.3071     57.7912     23.8282
H     18.3026     57.3417     23.9025
O     19.4681     58.9771     23.6909
O     20.6389     57.1090     23.8355
5

C      4.7589     37.8049     14.6136
H      6.2807     36.6903     15.8476
H      4.8875     38.8276     15.0834
O      6.2371     37.5817     15.1523
O      3.9695     36.9723     14.1463
5

H     17.1431      3.9285      2.4748
O     16.1307      5.2306      1.0671
H     17.7068      2.6522      0.7522
C     17.0649      4.5112      1.4384
O     18.1386      3.6171      0.8061
5

H     20.3182     55.8385     24.5366
C     19.2000     57.9244     24.1588
H     18.2554     57.7481     24.7188
O     19.6240     58.6254     23.2597
O     20.1200     56.8273     24.7488
5

C      4.8965     37.5039     14.8584
H      6.7027     36.9595     15.0537
H      5.3203     38.2477     14.0949
O      6.0708     37.5237     15.7407
O      3.7337     37.0430     14.7122
5

H     20.9888     56.8582     25.8175
C     19.6464     57.9747     24.4923
H     19.3794     58.8316     25.1341
O     19.3032     58.2329     23.3071
O     20.3754     56.7618     24.7098
5

C      4.6422     36.7392     14.7645
H      5.8291     38.0115     14.8360
H      5.4990     36.4726     13.8928
O      5.3059     37.9238     15.6790
O      3.3830     36.8910     14.5279
5

H     19.6195     56.4108     25.0846
C     19.5893     58.0897     24.6027
H     19.5059     58.6880     25.4951
O     19.6427     58.4689     23.3545
O     20.4984     57.0601     25.0019
5

C      4.1584     37.1069     14.2845
H      3.9112     38.7009     15.2766
H      4.2856     36.9680     13.1189
O      4.5771     38.0611     15.3249
O      3.8493     36.0014     14.8021
5

H     19.3036     56.8616     24.4748
C     20.2083     58.3369     24.5286
H     20.3919     59.1784     25.0256
O     19.9108     58.0736     23.3204
O     19.9529     56.9439     25.2134
5

C      4.2203     37.1785     14.9948
H      4.9311     37.3238     16.8227
H      3.1458     37.4403     14.9406
O      4.5904     37.9408     16.1293
O      4.6487     35.9839     14.8336
5

H     20.0988     56.5719     26.3404
C     20.4214     57.2957     24.1488
H     21.0972     56.4758     24.4398
O     19.9419     57.8119     23.1498
O     19.6818     56.9663     25.3735
5

C      4.7785     37.3043     14.9328
H      5.7143     38.3698     16.0543
H      4.8443     38.1289     14.0695
O      5.1571     37.6682     16.2887
O      4.2160     36.2071     14.8202
5

H     20.1998     56.2836     26.5821
C     20.4092     56.9711     24.6039
H     21.5216     56.8215     24.8481
O     19.6329     57.4418     23.6415
O     19.7399     56.4162     25.7293
5

C      4.7337     37.3225     14.5239
H      5.9520     37.0202     15.8125
H      4.7207     38.1893     13.9335
O      5.4866     37.8752     15.5914
O      3.8864     36.4852     14.8460
5

H     19.4822     56.4672     26.9026
C     20.0992     57.2114     25.2979
H     20.8427     57.9672     25.6655
O     20.5034     57.2695     24.1334
O     19.3068     56.2741     26.0104
5

C      3.8061     37.7217     14.7668
H      5.6330     38.4497     15.9431
H      3.2862     38.6027     14.7358
O      5.4109     37.8395     15.1485
O      3.4902     36.4745     14.5340
5

H     18.6549     57.2931     25.9417
C     20.5349     57.2807     25.1416
H     21.4082     58.0200     25.2305
O     20.8306     57.0379     23.9149
O     19.4788     56.6841     26.0367
5

C      3.6119     37.7545     15.0606
H      5.4705     38.5841     14.7831
H      2.9643     38.4796     14.5175
O      4.9708     37.8044     15.3436
O      3.0398     36.5951     14.8569
5

H     19.5655     55.9090     26.3175
C     20.6455     57.2402     24.8369
H     20.4306     57.9005     25.5102
O     20.6591     57.0741     23.5966
O     19.5498     56.5672     25.7424
5

C      3.5087     37.5737     14.3871
H      5.3672     38.4192     14.3215
H      3.2141     38.2918     13.3332
O      4.6380     38.2388     15.0105
O      2.8465     36.6472     14.9698
5

C      3.1433     38.0785     14.8255
H      4.3303     39.7987     14.9227
H      3.4334     38.4634     13.7996
O      4.0996     38.9862     15.3004
O      2.4318     37.2396     15.3307
5

C      3.2685     38.2988     15.2632
H      4.7855     39.0748     14.4040
H      2.9883     38.2831     14.3668
O      4.4766     39.1973     15.4624
O      2.2383     37.8138     15.8719
5

H     20.0524     55.6012     25.7810
C     20.4183     57.3114     24.7486
H     19.2876     57.2836     24.8846
O     21.1928     56.9697     23.8405
O     20.5674     56.6767     26.1424
5

C      2.9476     38.4566     14.9668
H      4.1006     39.8691     14.1420
H      2.8025     38.6935     13.8012
O      4.3411     39.0323     14.7527
O      2.2740     37.9714     15.8755
5

H     20.3902     55.9904     26.6292
C     20.7024     57.1773     25.2644
H     19.7241     56.8944     25.5772
O     21.1082     57.5397     24.1621
O     21.1463     56.0613     26.0515
5

C      2.7219     38.2818     14.5913
H      3.9833     39.3008     13.7232
H      1.8301     37.9318     13.6969
O      3.5493     39.4913     14.6574
O      2.3632     37.4078     15.4238
5

H     21.4118     54.8274     25.6227
C     21.1312     56.9142     25.6654
H     20.1791     56.3797     25.2152
O     21.6114     58.1187     25.5849
O     21.8929     55.6866     25.8471
5

C      2.9276     38.1797     14.8539
H      4.1815     39.3486     13.9986
H      3.5600     37.8590     13.7912
O      3.6653     39.4796     14.8065
O      2.1033     37.6095     15.6174
5

H     21.8545     55.2411     26.3168
C     21.3940     56.8648     25.5211
H     20.3601     56.8892     25.1693
O     21.9213     57.8556     26.1145
O     21.9884     55.5557     25.3932
5

C      3.0779     38.3422     15.2580
H      4.3909     39.8108     14.8044
H      4.1116     38.0186     15.2957
O      3.6898     39.7227     15.4455
O      2.0979     37.6156     15.4430
5

H     21.3622     55.6591     25.8397
C     21.7209     57.4503     25.2816
H     20.7565     57.0599     25.0154
O     22.1935     58.3098     26.0643
O     22.1726     56.0361     25.1182
5

C      3.4588     37.9258     15.5417
H      4.0226     39.9994     16.0153
H      4.5554     38.0498     16.0341
O      3.1483     39.3830     16.0598
O      2.8947     37.0899     14.8071
5

H     21.7410     56.4301     24.4526
C     22.3162     58.0120     25.2593
H     21.2759     58.7042     25.3516
O     23.2151     58.6355     25.8625
O     22.0867     56.5786     25.3181
5

C      3.5668     38.0817     15.5764
H      4.0577     38.9580     17.1656
H      4.2601     37.5917     16.2085
O      3.4850     39.3131     16.3060
O      3.4178     37.2078     14.6479
