28

O     17.7986     64.7914     20.4474
O     21.4115     64.9213     22.3785
C     23.3942     65.7328     19.9096
C     22.1340     65.7924     19.9534
C     20.7860     66.1150     19.6470
C     24.6201     66.3623     19.8321
C     19.9086     66.8152     22.5698
C     18.6184     64.3598     19.4525
H     20.8596     64.5917     24.5050
H     19.5570     65.4532     24.8977
C     19.9932     65.4524     22.9067
C     26.4117     68.8021     20.7034
N     19.1292     67.2087     21.4876
O     27.6964     68.7764     20.9506
O     26.9472     66.4275     21.0019
O     23.0673     67.1031     16.9143
C     23.5901     67.4452     17.8972
C     19.5799     65.5077     19.6908
C     19.0674     66.0539     20.6885
C     24.3183     67.6486     19.2350
C     19.9037     64.9590     24.0154
H     21.7800     64.5949     21.5406
O     18.8504     62.9975     19.0642
H     17.7879     62.5276     19.1392
H     20.9172     67.3500     22.3161
C     25.8559     66.9113     20.5780
C     25.6654     68.2540     19.7729
O     20.9298     67.5220     19.8178
28

O     17.8203     64.6468     20.4613
O     21.4025     64.3969     22.3358
C     23.3552     66.0061     19.7214
C     22.1387     66.0843     19.8087
C     20.8780     66.3871     19.9208
C     24.8054     66.2067     19.4727
C     19.7017     66.6432     22.7673
C     18.8589     64.3766     19.6125
H     21.4107     64.7371     24.7401
H     20.4609     65.8134     25.0589
C     20.7111     65.4483     22.9182
C     26.4814     69.3705     19.6213
N     18.8372     67.0029     21.9009
O     27.1122     69.5474     20.7602
O     27.0570     66.6422     20.8536
O     23.0756     67.3845     16.9354
C     23.9556     67.7090     17.5954
C     19.4342     65.5808     20.0092
C     18.7566     65.8939     20.9575
C     24.8757     67.5369     18.6780
C     21.0171     65.6095     24.2698
H     21.0464     63.5014     22.7711
O     19.1800     63.2526     18.8469
H     18.4400     62.6035     18.9950
H     20.1245     67.1203     23.6469
C     25.8898     66.8280     20.3196
C     25.6850     68.2692     19.6554
O     20.1997     67.0741     19.0983
28

O     18.2825     64.9011     21.0837
O     20.8607     63.6864     22.7123
C     23.5496     66.4696     19.2815
C     22.3778     66.8078     19.0210
C     21.0916     67.0243     19.3175
C     24.9020     66.8300     19.4618
C     21.3179     65.7399     23.7862
C     19.2358     65.1028     20.2508
H     21.3414     64.0324     26.0428
H     21.0631     65.5787     25.4876
C     21.4441     64.5015     24.1155
C     26.3743     69.2777     20.0079
N     21.4874     66.3917     22.5594
O     25.2673     69.4395     20.6509
O     26.7702     66.4010     21.4394
O     25.5870     66.5005     16.1736
C     25.7842     67.3628     17.0539
C     20.1178     66.1819     20.4935
C     20.9841     66.2443     21.4667
C     25.6419     67.5827     18.4546
C     21.1678     64.6099     25.2773
H     21.6585     63.3108     22.2669
O     19.8203     64.4755     19.0088
H     19.7993     63.6341     19.2523
H     20.6358     66.4388     24.4220
C     26.0366     66.9709     20.5273
C     26.3544     68.1451     19.5977
O     20.1596     67.5767     18.6255
28

O     18.0548     65.6678     21.1159
O     21.8619     63.3978     22.7311
C     23.6243     66.8609     19.8535
C     22.4878     67.1803     19.6718
C     21.0122     67.1770     19.5307
C     24.9972     66.6557     19.6841
C     21.4725     65.8778     24.1039
C     19.1709     65.6060     20.4087
H     20.4331     62.7050     23.9737
H     20.6815     63.0503     25.5024
C     21.2378     64.6195     23.7933
C     25.9241     68.9083     20.0374
N     21.7951     66.2483     22.7024
O     25.1955     69.8877     20.5078
O     26.6434     66.0805     21.5723
O     26.5284     67.3760     16.3108
C     25.7478     66.9349     17.1596
C     20.1794     66.7115     20.5518
C     21.0115     66.6662     21.7067
C     25.7534     67.1030     18.5220
C     20.5502     63.5629     24.4372
H     22.5578     63.7289     22.2154
O     20.1404     64.6441     19.7510
H     19.5684     63.8601     20.0008
H     20.6884     66.4414     24.8752
C     26.2363     66.7302     20.5197
C     26.6473     67.9725     19.5699
O     20.6276     67.8340     18.5064
28

O     18.9166     65.5229     21.7812
O     21.6481     63.0883     22.0525
C     23.9552     66.5109     19.1010
C     22.7470     66.6431     18.8701
C     21.3265     66.9112     19.1716
C     25.3919     66.1729     19.3091
C     21.7862     65.5359     23.6711
C     19.8366     65.3801     20.9360
H     20.6512     62.4604     23.8523
H     21.2500     63.2868     25.3102
C     21.2462     64.2624     23.3408
C     27.2840     69.0346     20.3176
N     22.5564     66.0971     22.4981
O     27.9832     70.0681     20.3866
O     27.2169     65.7182     21.0998
O     26.3238     66.7259     16.0089
C     26.2034     67.6446     16.9049
C     20.8010     66.2648     20.4444
C     21.7597     66.2290     21.5546
C     26.1897     67.1298     18.5953
C     21.2524     63.3216     24.2559
H     21.1295     63.7887     21.5189
O     19.8589     64.2110     19.7306
H     19.0291     63.9703     19.5380
H     22.1407     65.7205     24.5189
C     26.4160     66.5629     20.5231
C     26.5536     67.8840     20.0551
O     20.7040     67.0103     17.9748
