32

H     13.1904     60.3165     21.5579
C     14.9670     59.2912     28.4173
C     13.9024     59.3618     23.8636
C     16.9988     60.7330     30.7130
O     14.3475     58.5904     22.9290
O     17.7861     61.5733     31.3773
C     14.0613     58.9793     27.3590
H     14.4919     57.2419     26.4124
C     11.6720     60.2082     23.2078
C     12.2317     62.1289     26.0095
O     13.3167     61.8036     30.6369
O     11.1938     60.3273     24.5765
H     10.2337     60.2960     24.5587
C     14.7602     60.3035     29.4408
O     11.5809     61.9593     28.6355
O     13.6004     57.7954     26.7784
H     12.6424     62.3204     31.2221
C     12.4000     61.0682     27.8460
C     15.9750     60.4604     29.9024
C     13.4091     60.3502     30.2888
O     13.6038     62.3426     23.9027
C     13.1059     60.3815     22.7115
C     13.4369     60.3928     27.2054
O     12.8226     59.4725     30.9704
C     13.5738     60.5917     25.7400
C     13.1367     61.7806     25.1271
N     14.0261     59.4584     25.1668
O     11.0236     59.6122     22.2827
H     15.7140     58.5978     28.8824
C     14.1402     61.5100     22.8511
C     11.5069     62.0529     27.1501
O     14.8885     61.8657     21.8220
32

H     12.8687     59.8343     21.7314
C     14.7094     59.0276     28.9644
C     14.0990     59.5997     23.6238
C     17.4606     61.0537     29.8083
O     14.7412     58.9455     22.6601
O     18.5140     61.3022     30.5767
C     14.0841     59.2664     27.6873
H     14.0311     57.4059     27.0863
C     11.6891     60.0913     23.5644
C     11.9770     62.4926     25.4451
O     13.2507     61.8944     30.7570
O     11.3854     60.0540     24.9955
H     10.4396     60.4133     25.0824
C     14.8665     60.3698     29.7316
O     11.4999     62.0132     28.2243
O     14.3073     58.0912     26.5718
H     12.2977     61.9100     30.5183
C     12.6863     61.4935     27.6175
C     16.0832     60.8191     30.0566
C     13.6383     60.5200     30.5867
O     13.5056     62.6915     23.7915
C     13.0065     60.1620     22.7868
C     13.5606     60.4341     26.9743
O     13.0887     59.4934     31.3094
C     13.7463     60.6789     25.5778
C     13.2223     61.9847     25.0840
N     14.4945     59.8362     24.7895
O     11.0317     60.2776     22.5098
H     15.4021     58.2073     29.1370
C     13.5111     61.6440     22.7066
C     11.9365     62.3674     26.8152
O     14.3776     61.4804     21.8456
