35

H     14.2398     59.5954     22.2378
H     15.5894     61.1712     25.5214
C     14.1123     59.1579     29.4823
C     14.9467     59.6826     24.2896
C     16.9888     60.6853     30.9883
O     15.8197     59.2007     23.5192
H     11.3932     63.0525     24.6424
O     18.2483     60.3927     31.0259
C     13.5531     59.2259     28.1484
H     13.5677     57.3210     27.4493
C     12.4923     60.0113     23.1937
C     11.8085     62.4418     26.1953
O     14.1345     62.6150     31.0164
O     12.0127     59.2898     24.5741
H     11.5532     58.4339     24.4391
C     14.3556     60.3079     30.3323
O     12.1197     62.6202     29.1058
O     13.9397     58.1059     27.2266
O     10.7376     62.9127     25.3697
H     14.0061     63.4689     30.3325
C     12.6082     61.5446     28.1807
C     15.7466     60.4267     30.5558
C     13.7704     61.1635     31.4023
O     13.8505     62.2941     24.6110
C     13.9286     60.1155     23.1588
C     13.2599     60.4532     27.4939
O     13.1305     60.9102     32.4665
C     13.6409     60.7506     26.1624
C     12.8889     61.7218     25.5869
N     14.8879     60.3497     25.5739
O     11.7903     59.6606     22.1731
H     14.2331     58.1809     29.8259
C     13.9376     61.7423     23.3004
C     11.7417     62.4714     27.6245
O     14.2620     62.1934     22.1463
35

H     14.8449     60.3428     22.0577
H     15.8650     59.7440     26.0406
C     14.5651     59.1029     29.7112
C     14.9683     60.0597     24.2087
C     16.9212     61.0058     30.5784
O     15.8155     59.6889     23.3137
H     10.3261     63.5385     26.4904
O     17.7590     60.5418     31.4905
C     14.0832     59.3186     28.3972
H     14.1547     57.5012     27.8216
C     13.0426     59.7466     23.0192
C     11.8848     62.6082     26.2298
O     13.8969     62.4645     31.1012
O     12.7395     58.7173     24.2779
H     11.7285     58.6554     24.1407
C     14.5763     60.2375     30.6790
O     11.6827     62.6208     28.8282
O     14.2082     58.3232     27.3205
O     10.5600     62.9122     25.7457
H     14.9529     62.8509     31.0351
C     12.5041     61.3773     28.3787
C     15.8378     60.5524     30.4643
C     13.7198     61.1016     31.6335
O     13.2318     62.5375     24.3950
C     14.0990     60.6651     22.9167
C     13.5462     60.6203     27.7821
O     13.4143     61.0940     32.8980
C     13.6334     60.7106     26.3123
C     12.7719     61.6504     25.6551
N     14.7749     60.0869     25.6256
O     12.1214     59.5179     22.1479
H     15.1154     58.3454     30.0621
C     13.7634     62.0924     23.2370
C     12.2343     62.5344     27.5729
O     14.7074     62.5292     22.3761
35

H     14.5263     60.6561     22.7074
H     14.7713     59.1190     25.9828
C     14.3124     59.0250     29.7084
C     15.2217     60.4786     24.6238
C     17.2594     60.8088     30.7804
O     16.1154     60.1999     23.7434
H      9.7466     61.4959     25.5493
O     18.2734     60.6526     31.5934
C     14.0314     59.2493     28.3842
H     15.0104     57.5194     28.2761
C     12.9288     60.0433     23.5100
C     11.5451     62.0682     26.4539
O     14.5936     62.4366     31.0526
O     13.3277     58.7215     24.4813
H     12.5573     58.2703     24.4356
C     14.8125     59.9353     30.7588
O     11.5482     61.5035     29.2940
O     14.7798     58.0908     27.5057
O     10.2087     62.3632     25.6260
H     14.9837     62.8794     31.8826
C     12.6261     61.3696     28.4177
C     16.1346     60.2417     30.9406
C     14.3042     61.0565     31.5850
O     12.9850     62.3189     24.2827
C     14.0908     60.8134     23.6926
C     13.7676     60.6412     27.8668
O     13.9124     60.7777     32.7942
C     13.6976     60.7557     26.4276
C     12.6440     61.5257     25.8056
N     14.9096     60.1135     26.0103
O     12.4748     60.3857     22.3894
H     14.4596     58.0265     29.9090
C     13.9565     62.4112     23.2477
C     11.5682     62.0223     27.8669
O     14.5709     62.9811     22.2819
35

H     14.8783     61.2499     22.6293
H     15.0209     59.3258     25.9243
C     14.4309     59.1985     29.8231
C     15.6157     60.6619     24.7106
C     17.4671     60.8616     31.6442
O     16.7498     61.1759     25.0605
H      9.1425     61.8127     26.1449
O     18.6226     60.5634     31.8135
C     14.0169     59.2362     28.4386
H     15.2819     57.4941     27.9099
C     13.2207     60.2810     23.0654
C     11.5619     61.8477     26.2444
O     14.2945     62.4826     31.3360
O     12.7732     59.2842     24.0923
H     12.2343     60.0666     24.8122
C     15.0332     60.0583     30.5777
O     11.0481     61.3244     29.0830
O     14.7797     58.4263     27.4694
O     10.1100     62.0788     25.7309
H     14.5697     63.1684     30.5508
C     12.3033     61.0051     28.5500
C     16.1780     60.6641     31.2890
C     14.9330     61.0662     31.7308
O     13.4638     62.8811     25.0188
C     14.4586     61.0645     23.6782
C     13.3672     60.3655     27.7194
O     14.7899     60.6055     33.0876
C     13.8218     60.9027     26.3781
C     12.9516     61.9385     25.9683
N     14.5311     60.0794     25.4884
O     12.3424     61.2292     22.9491
H     14.6494     58.1586     30.2468
C     14.3753     62.5783     24.0057
C     11.4916     61.5228     27.5453
O     15.0711     63.1265     23.1071
