40

C      9.6491     59.9674     31.2387
H     15.2077     58.9131     32.7772
H     13.8565     61.5070     22.5827
H     15.4371     60.4527     26.4026
C     14.6357     58.6269     29.7635
O      6.9356     60.0951     29.8828
C     14.7747     60.8769     24.7270
C     17.7031     60.4810     29.9265
O     15.7680     60.6131     23.9300
H     10.2153     60.4527     25.0835
O      9.7700     59.3338     28.4715
O     18.4164     61.2585     29.2838
C     14.1875     58.8408     28.4731
C     12.2892     60.6805     23.5550
C     11.0857     60.8226     27.0039
O     14.4021     61.3634     31.9835
O     12.2663     59.2358     23.6328
H     12.6419     59.2109     24.4554
C     15.2543     59.9204     30.2797
O     11.9443     61.0127     30.2129
O     10.5777     61.2684     25.5727
H     14.6271     62.2253     31.4158
C     12.1373     60.3611     29.1369
C     16.5819     60.1323     30.0477
C     14.4528     60.1194     31.5071
O     12.6587     62.6069     25.9603
C      8.0565     59.8135     30.3452
C     13.7296     61.2129     23.5875
C      9.3931     59.4864     29.9387
C     13.0964     59.7814     28.0647
O      9.5922     61.0678     32.0040
O     14.4037     58.8786     32.3022
C     13.3089     60.5854     27.0050
C     12.4220     61.3271     26.6206
N     14.5409     60.4415     26.2400
O     11.2790     61.3932     23.5870
H     15.3706     57.8242     29.6655
C     13.3913     62.3688     24.6368
C     10.8786     60.1018     28.1095
O     13.8339     63.4319     23.9394
