4

O     20.8189      4.5579     10.0857
C     20.8582      4.3632     11.2492
C     20.9261      3.9970     12.7166
N     20.9040      4.0724     13.8401
4

O     20.6134      4.4826      9.6581
C     20.0634      4.4045     10.8559
C     20.3741      3.9909     12.0820
N     20.6518      3.7589     13.1574
4

O     20.2405      4.5378     10.0538
C     20.5715      3.6971     10.8021
C     20.1395      3.7448     12.2861
N     20.1013      3.9933     13.3412
4

O     21.1405      4.1850     10.5317
C     20.0009      4.3040     11.1332
C     19.8810      4.0112     12.4623
N     19.8599      3.6997     13.5228
4

O     21.3490      4.6344     10.3486
C     21.0854      4.4771     11.5897
C     20.1113      4.5280     12.3557
N     19.1687      4.3534     13.2326
