7

C     24.9415     62.9576     27.4675
O     27.2541     63.2743     27.1776
H     24.5232     60.7305     27.0937
H     25.7875     64.3322     28.2246
O     24.1097     61.6743     26.7606
C     26.0835     62.7115     27.0103
O     24.7789     64.1133     28.2498
7

C     25.0801     62.9990     27.1331
O     27.5796     63.5126     27.5126
H     24.4492     61.2097     27.1099
H     25.4296     64.5910     27.7364
O     24.4152     61.9215     26.5876
C     26.3527     63.2428     27.2982
O     24.5535     64.2344     27.9210
7

C     25.6497     63.2217     27.2343
O     27.9559     63.6217     27.6418
H     24.3201     62.4159     26.4060
H     24.4376     64.2816     28.8286
O     25.1208     61.9207     26.7301
C     26.7260     63.3583     27.4092
O     24.5078     63.9551     27.7960
7

C     25.1567     63.3863     27.3296
O     27.6680     64.0506     27.3795
H     24.5170     62.4043     26.0465
H     23.5631     63.9596     28.3849
O     25.2964     62.0375     26.5786
C     26.3837     63.7454     27.4116
O     24.2073     64.4437     27.6483
7

C     25.3749     63.3737     27.5123
O     27.2961     64.7700     27.5226
H     24.1950     62.2456     27.1569
H     23.4828     63.7591     27.9298
O     25.0320     62.2496     26.6399
C     26.4798     63.7731     27.8046
O     24.2067     64.3341     28.2198
7

C     25.4484     63.4794     27.2760
O     27.4365     64.9875     26.8386
H     24.4911     61.8740     27.3930
H     24.5098     63.7754     28.8970
O     25.4412     61.9420     27.2640
C     26.5759     64.0335     27.0366
O     24.6292     64.2890     28.0962
7

C     25.6731     64.1316     27.5452
O     27.9642     65.0897     27.1450
H     25.5184     61.9897     27.8341
H     23.8359     63.9246     27.9848
O     25.9583     62.5887     27.2068
C     26.8155     64.5165     27.5092
O     24.5221     64.8973     28.0408
7

C     26.2026     64.3272     27.1412
O     28.4079     65.2150     27.4172
H     25.4807     62.5050     26.9802
H     24.9954     65.7066     27.8816
O     26.4428     63.0094     26.7299
C     27.2811     64.9753     27.2791
O     25.0249     64.6194     27.7652
7

C     26.4395     64.3204     26.9864
O     28.3967     65.8407     27.2445
H     26.2850     62.2216     26.8931
H     24.8079     64.8826     28.1103
O     26.9915     62.7457     26.5703
C     27.4526     64.9610     27.1697
O     25.1455     64.8572     27.3754
7

C     26.3884     64.5898     26.8623
O     27.6719     66.1934     27.5182
H     26.9961     62.9869     26.5000
H     24.9138     64.1545     27.8708
O     26.3864     63.2088     27.2605
C     27.6483     65.1107     27.0128
O     25.3655     65.2207     27.5368
7

C     26.3831     65.1844     27.1595
O     28.9266     65.6292     27.2842
H     26.5333     63.1017     27.1158
H     24.9828     65.0437     28.6257
O     25.8372     63.7564     26.7041
C     27.7897     65.1361     27.4172
O     25.6432     65.8591     28.1058
7

C     26.7144     65.5030     27.5410
O     28.8407     65.8827     27.4474
H     25.9145     65.4618     25.9853
H     25.0559     65.7416     28.0166
O     25.3770     64.9158     26.5617
C     27.7940     65.1938     27.1133
O     25.7739     65.8048     28.6324
7

C     26.1385     65.3925     27.4171
O     28.4335     65.7940     26.8155
H     24.5060     64.7209     26.1761
H     25.2436     65.2263     28.9370
O     25.4814     65.1098     26.1270
C     27.2715     65.9220     27.3219
O     25.4128     65.9790     28.3934
7

C     26.4538     65.9637     27.2708
O     28.5853     65.6091     27.5115
H     24.6228     66.8963     26.6950
H     25.8341     65.3736     29.0853
O     25.1379     65.9557     26.5664
C     27.5447     66.2622     26.9500
O     25.7608     66.2450     28.7087
7

C     26.2486     66.0052     27.1718
O     28.4860     65.4571     26.2461
H     24.7423     67.0391     26.7880
H     26.0660     65.0239     29.0075
O     25.5156     67.0118     26.3239
C     27.3753     65.9023     26.4450
O     25.9808     66.1598     28.5864
7

C     26.4589     66.0741     26.8870
O     28.1087     66.2891     25.2173
H     26.2320     68.0666     27.2368
H     25.5863     65.6510     28.4811
O     25.7988     67.5071     26.4957
C     27.5025     66.1058     26.3098
O     26.2612     65.0316     27.8250
