8

H      0.8879     30.1269     18.5848
O      1.6382     27.9382     18.7303
H      2.0477     27.5158     19.5335
O     -1.1068     28.1935     17.5913
C      0.2758     27.7279     19.2470
O      0.0521     30.1851     18.7802
C     -0.4581     28.7362     18.5092
O     -0.2894     27.5224     20.3571
8

H     -0.8185     29.4361     17.8069
O      2.0941     29.7851     19.2190
H      2.7684     29.4083     18.6767
O     -1.5925     28.0988     19.7060
C      0.6480     28.8570     19.3869
O     -0.9090     30.1561     18.4577
C     -0.8312     29.0403     19.4818
O      0.7013     27.6144     19.5492
8

H      0.4320     30.6096     19.1585
O      1.6601     29.3479     18.8041
H      2.6049     28.8997     18.6865
O     -1.9370     28.8276     19.4999
C      0.6148     28.2245     18.9101
O     -0.4477     30.2548     18.8978
C     -0.7808     28.8670     18.9368
O      0.8025     27.0788     19.3056
8

H     -0.2812     31.0404     18.8674
O      1.8184     28.5080     18.2873
H      2.3199     27.7937     18.7216
O     -1.3268     28.9338     18.1852
C      0.5830     27.8743     18.6580
O      0.1104     30.4255     19.3910
C     -0.3380     29.2093     18.8597
O      0.1505     26.8299     19.0846
8

H     -1.3513     29.9228     20.0437
O      2.2747     28.3272     18.9330
H      3.3075     28.5647     19.0588
O     -0.1563     29.2869     17.4454
C      0.6617     27.7981     18.8676
O     -0.2135     29.9213     19.8289
C      0.2125     29.1941     18.6624
O      0.1638     26.6993     19.2011
8

H     -0.4456     30.5989     19.1431
O      2.3256     27.5322     19.2890
H      2.4868     28.4169     19.0856
O     -0.1806     29.5457     17.8140
C      0.9386     27.6950     19.0472
O     -0.2589     29.9826     19.9414
C      0.2940     29.0112     18.9048
O     -0.0358     26.9794     19.5627
8

H      0.1006     30.6960     20.6634
O      2.2915     27.7302     19.0529
H      2.2103     27.7229     17.9793
O      0.6520     29.7922     18.0157
C      0.8926     27.8432     19.4088
O      0.8998     30.1382     20.5796
C      0.6190     29.2983     19.1726
O     -0.1873     27.1989     19.5117
8

H      0.7680     30.1324     21.3256
O      2.1357     27.4549     18.2493
H      3.0271     26.9562     18.2619
O      1.3028     30.0483     18.6451
C      1.0642     27.6830     19.2945
O      0.4476     29.3746     20.8164
C      0.8257     29.1492     19.4767
O      0.0725     26.8961     19.3959
8

H      0.0780     30.0206     21.0332
O      2.2563     27.7272     18.1112
H      1.4604     27.8671     17.6592
O      1.1973     30.2147     18.9724
C      1.6301     27.7827     19.4594
O      0.1871     29.0115     20.8903
C      1.0103     29.1954     19.6214
O      0.7382     26.7817     19.8082
8

H     -0.2129     30.4141     20.8888
O      2.2848     27.6345     18.3453
H      3.1257     27.9763     18.4509
O      1.5935     29.8476     18.8986
C      1.3080     27.8211     19.3563
O     -0.0774     29.5323     20.7588
C      1.0090     29.1301     19.7521
O      0.2711     27.0579     19.3747
8

H      0.3150     29.0573     20.6396
O      2.5610     27.3763     18.6949
H      3.3081     27.5554     19.3737
O      2.1578     30.0290     18.5885
C      1.2422     27.9528     18.7695
O     -0.0018     29.7712     19.7218
C      1.1030     29.4253     18.8418
O      0.1983     27.3114     18.8176
8

H     -0.8895     29.5211     20.4166
O      2.1163     27.9386     18.0886
H      2.5305     28.3293     18.8139
O      1.6997     30.5491     18.2143
C      0.7168     28.4160     18.2546
O      0.0924     29.6169     19.8718
C      1.0396     29.6472     18.7593
O     -0.2682     27.7616     17.8753
8

H     -0.7334     29.8700     20.7879
O      2.0077     28.0843     17.4172
H      2.4524     28.8762     17.9419
O      1.4069     30.2390     18.8801
C      0.7874     28.4520     18.1263
O     -0.3160     29.2672     20.3169
C      0.6951     29.3644     19.3254
O     -0.1954     27.7003     18.0734
8

H      0.1985     27.8161     20.8569
O      1.0803     28.2020     16.9762
H      1.3843     29.2988     16.9368
O      1.0109     30.3761     19.4882
C      0.3049     28.1923     18.2603
O     -0.1398     28.5949     20.3680
C      0.7366     29.2756     19.1075
O     -0.0492     26.9425     18.2362
