9

O     30.1898     50.6755     10.8604
C     28.6155     48.6784     10.3493
H     27.9689     46.6802      9.6829
H     29.9294     49.1676      9.2744
O     28.5666     47.5105      9.4052
H     30.0036     50.3822     11.8393
O     27.9488     48.1865     11.5954
C     29.6099     49.5800     10.1427
H     26.9892     48.7056     11.2671
