34

C     25.0842     70.6746     18.6192
O     17.2753     65.1841     21.0447
C     23.5674     66.1912     21.5372
C     22.4251     65.6863     21.6555
C     23.3969     69.1475     18.0370
C     20.8933     64.8317     21.4569
C     24.7877     66.7604     21.1800
C     18.5604     66.0591     23.8874
C     18.5760     64.4685     21.0460
H     20.8906     63.5261     24.2308
H     19.2779     63.4139     24.9595
C     19.1331     64.8947     23.8688
C     22.3945     69.0502     17.0624
O     21.2737     68.4316     17.0103
C     27.0258     68.8696     19.2828
N     18.2687     66.7294     22.6839
O     26.7127     70.2014     18.9271
O     28.0924     68.1418     19.0160
O     27.3150     67.1284     21.9173
O     22.4818     67.7509     19.8091
C     23.6359     68.0812     19.2102
C     19.8796     64.1146     21.5592
C     24.4041     70.1091     17.4888
C     18.3470     65.9366     21.4478
C     24.4146     71.0629     19.7935
O     25.2627     72.1305     19.5969
C     24.8465     67.5979     19.8801
C     19.7264     63.6517     24.1435
H     18.7903     66.7431     24.7990
C     26.0890     67.4655     21.5737
C     25.9785     68.1449     20.1609
O     24.2320     70.3512     20.8353
O     21.3078     65.8164     20.6034
O     24.7678     69.8556     16.1598
34

C     25.2151     70.4507     18.6515
O     17.3290     64.9730     20.7098
C     23.9534     66.3958     21.2506
C     22.7137     66.2466     21.5055
C     23.1145     68.5333     18.0518
C     21.0847     65.2363     21.8579
C     25.1028     67.0763     20.8879
C     18.5862     66.2541     23.9239
C     18.7311     64.5867     20.9069
H     20.3919     63.6303     24.2246
H     18.9505     62.9618     24.2887
C     19.0983     64.9510     24.2882
C     21.7970     68.4961     17.4820
O     22.1882     68.5122     16.2761
C     27.0471     69.1875     19.3839
N     17.9452     66.2241     22.7458
O     26.7384     70.3874     18.7133
O     27.9878     68.3750     18.9047
O     27.8913     67.4848     20.5482
O     22.0390     67.8883     19.5592
C     23.4075     68.0686     19.3535
C     20.0830     64.5310     21.6195
C     24.0138     69.5504     17.6616
C     18.1124     65.6037     21.6275
C     24.6087     70.7501     19.9186
O     24.5223     71.5604     18.4640
C     24.6906     68.2668     20.0547
C     19.5240     63.7776     24.5309
H     18.1271     67.0284     24.8584
C     26.6187     67.4204     20.9895
C     26.1551     68.4732     20.2272
O     23.8872     70.9070     20.9949
O     21.3268     66.4577     21.3465
O     23.9064     69.9740     16.5347
