36

C     25.1900     71.6133     18.1167
O     17.7918     65.7307     20.0359
C     23.6305     66.4567     20.3889
C     22.6723     65.7467     20.4008
C     23.6872     69.9349     17.7515
C     21.1983     65.6302     19.7071
C     24.7253     67.2849     20.2961
C     19.6802     65.5353     23.0991
C     18.8135     64.7237     19.7934
H     19.9526     63.1128     25.0964
H     19.3908     64.8827     25.0681
C     20.0237     64.1760     23.2932
C     22.5193     69.2938     17.0930
O     22.0364     69.3503     15.9271
C     26.9490     69.4756     21.1411
N     18.8941     66.3104     22.3024
O     26.4359     71.3667     17.9582
O     27.6065     70.4547     21.5185
O     26.8309     66.0202     20.9401
O     22.4943     68.3650     18.3595
C     23.5815     69.0313     18.9797
C     19.8350     65.2381     20.3297
C     24.5551     70.4978     17.0815
C     18.9649     66.1449     20.8650
C     24.3769     72.2819     19.2258
O     25.0593     73.0148     18.0645
C     24.6269     68.5163     19.7002
C     19.6123     63.9758     24.4075
O     18.8465     63.9962     18.5227
H     18.1094     63.3241     18.6290
H     19.2927     66.2094     24.1249
C     26.1310     67.1098     20.6398
C     26.0860     68.6325     20.4127
O     23.6544     72.4983     20.2040
O     20.9844     66.8280     19.2481
O     25.4231     69.8320     16.3916
