56

C      2.5762     25.9283     30.3694
C      3.9543     28.5847     31.7855
C     -3.1202     27.0760     29.6849
C      2.0674     27.6664     24.9854
C      2.7536     29.3837     23.1819
C      4.1239     26.0030     25.5688
C      3.2022     26.8372     25.1484
C      1.8622     27.4391     32.1042
O     -1.7276     28.0488     35.7064
O      3.2640     28.2173     29.7596
C     -0.8322     28.6778     34.6425
C      0.2360     26.2652     30.1996
C     -0.3085     27.3142     34.2853
C      1.0797     27.4274     33.1609
C      1.4092     26.8051     30.7787
C      3.0761     28.0244     31.3349
O      2.3306     25.7279     27.9675
O      5.7254     25.1227     29.6505
C     -0.0024     26.0615     34.8471
C      4.3654     25.4577     29.2209
C      4.6262     25.7722     27.0392
O      4.9845     27.2790     23.9158
O      2.0353     29.4671     22.1422
O     -2.8606     28.4000     30.3754
O      6.2888     25.6792     25.4011
H      6.5833     26.0173     27.6975
C      6.0585     25.7900     26.8075
O      4.1204     30.1352     23.7176
H      2.6876     28.0525     28.9899
H     -5.9168     25.9693     32.2279
O      1.3253     23.9251     29.5252
O      5.1490     25.9034     31.3045
O      1.9510     30.1226     26.0637
O     -6.0239     27.1475     32.2186
H     -0.9186     27.6964     36.1064
H      3.6562     31.1278     23.7849
H      5.3217     24.8349     31.2444
C     -4.9419     27.7573     31.5349
C      3.8540     25.8953     30.3938
C     -0.8311     26.4819     29.5025
H     -0.2877     29.4749     25.9799
O     -4.0108     26.2003     30.1486
C     -0.3317     27.1534     32.9392
O     -0.3011     29.8209     24.9742
O     -0.5134     25.0856     35.4253
C      1.9150     28.8823     24.2435
O     -0.8028     29.8069     34.1147
O     -0.6012     26.0050     32.1805
C      1.8860     25.0519     29.1772
C      3.8069     25.9060     28.0760
C      1.1563     29.9381     25.1353
C      5.1597     26.2441     24.6936
C     -4.0586     28.4902     31.1040
O      1.1843     27.8246     26.1914
O      5.1645     28.6846     32.1460
C     -2.0433     26.7610     29.0746
