11

O     30.0908      2.7261     16.0422
C     29.3726      1.8202     16.4458
N     27.9251      0.8877     15.7479
O     30.7918      3.2207     18.5029
H     29.6689      1.6807     19.7772
H     27.4925      1.6173     18.1741
C     29.8958      2.0434     18.8836
O     28.1633      1.0521     18.6808
H     31.4360      3.1419     19.2198
C     29.3721      1.5163     17.9849
N     27.2598      1.6688     15.2632
