7

O     17.4996     48.0787      8.4453
C     16.6475     49.1566      5.4792
O     17.5029     48.9907      4.6542
O     16.0976     50.3060      7.3703
C     18.0689     48.9913      7.7453
O     19.3282     49.0471      7.2283
C     16.9598     49.4870      6.7749
7

O     17.8053     47.5991      8.4002
C     17.4622     48.1843      5.5999
O     17.0168     48.8725      4.7419
O     16.4842     49.8168      6.8854
C     18.1571     48.6757      7.8904
O     19.2260     49.6190      7.8097
C     17.4847     48.9997      6.7140
