8

C      1.8984     43.5036     13.8245
H     -0.5148     44.1472     11.0710
C      1.2071     44.0023     12.7695
O     -0.9197     44.6403     11.8722
O      1.7971     44.0801     11.6001
O      3.0996     43.3121     13.5975
C     -0.3367     43.8070     12.9054
O     -0.6404     42.8097     13.6022
8

C      2.1193     43.4515     12.9543
H     -1.3512     45.5784     12.0420
C      0.9645     43.9053     12.4471
O     -1.4530     45.1159     12.8137
O      0.7488     44.5366     11.3843
O      3.1754     43.2046     13.4382
C     -0.7209     43.8048     12.9649
O     -0.9103     42.6619     13.3014
8

C      1.4953     44.0807     12.9908
H     -2.3646     45.0715     13.3128
C      0.4797     44.1379     12.1705
O     -1.3056     45.2289     13.2761
O      0.5235     44.7801     11.0893
O      2.3062     43.1258     12.9114
C     -0.7703     43.8422     12.8292
O     -0.9233     42.6106     12.9475
8

C      1.8762     44.4482     12.3439
H     -1.3138     45.5191     12.4679
C      0.7445     44.8010     11.5268
O     -1.3739     44.6372     12.8203
O      0.5877     44.9606     10.2712
O      2.3576     43.5657     12.9960
C     -0.2234     43.9620     12.3884
O     -0.0267     42.7574     12.0684
8

C      2.3598     44.7900     11.9560
H     -1.2919     45.0506     11.1081
C      1.3854     44.4392     11.2020
O     -1.2573     44.2734     11.7968
O      1.2324     45.2148     10.1837
O      2.4728     44.1942     13.0444
C      0.0409     43.6107     11.6867
O      0.5728     42.6898     12.1493
8

C      2.5038     44.5135     11.8922
H     -0.4555     44.3159     10.3590
C      1.3348     44.3800     11.1805
O     -0.8987     43.9337     11.2269
O      0.9173     45.4380     10.4021
O      3.3630     44.2195     12.7867
C      0.3431     43.4027     11.8952
O      0.7062     42.1931     11.9936
8

C      2.6216     44.3854     11.6230
H     -1.1822     44.6310     11.4594
C      1.1906     44.3637     12.2148
O     -1.0884     43.7387     12.0065
O      1.7174     45.4677     11.6136
O      3.3717     44.1138     12.5866
C      0.4003     43.2233     12.1774
O      0.9369     41.9631     12.2782
8

C     12.0185     65.6301      3.4013
C     13.2430     65.6958      2.6721
O     10.3024     65.7350      1.3228
O     11.8340     64.4861      4.5634
C     11.0740     66.1283      2.3714
O     14.5031     65.6121      2.5942
O     11.1979     67.2702      3.1156
H     12.7098     63.9631      4.8155
8

C     11.9383     65.4004      2.9839
C     13.2750     65.3945      2.7356
O      9.6007     65.3875      1.4834
O     11.3869     64.7590      4.3424
C     10.7362     65.8248      1.9144
O     14.5965     65.7706      2.7357
O     10.9668     66.7378      2.8962
H     12.3422     64.3723      4.8040
8

C      2.6626     43.9694     12.0434
H     -0.3550     43.3646     12.3445
C      1.5580     44.5841     11.4413
O     -0.5674     43.8163     11.4026
O      1.4724     45.5423     12.3647
O      3.0285     43.2114     12.9485
C      0.6386     43.9352     10.3336
O      1.1812     44.2032      9.2070
8

C      8.5358     56.5739      5.2555
O      7.0978     55.5490      6.7858
O      9.7103     55.6645      7.0931
C      9.7487     57.5043      5.1620
H      9.3499     54.8494      7.6594
C      8.2710     56.0218      6.5312
O     10.1483     57.8215      4.0192
O      8.2508     56.1174      3.9613
8

C      8.3418     56.3119      4.9944
O      6.9293     55.1314      6.1060
O      9.4046     55.1370      6.5014
C      9.3527     57.0492      5.3124
H      9.1458     54.6873      7.3855
C      8.1291     55.7039      6.2195
O     10.0004     57.3505      4.2162
O      7.3989     55.9488      4.1939
8

C      7.6597     56.4714      5.0632
O      6.5827     55.0586      6.3119
O      8.8070     55.5279      6.9235
C      8.8469     57.3326      4.6820
H      9.3105     55.7605      6.1971
C      7.4998     55.9017      6.2231
O      9.8673     57.0310      3.9760
O      7.0743     56.0498      3.9640
