6

C      9.4282     60.1580      0.7860
O      7.5159     59.7888      2.6514
O      7.3694     59.7949     -1.0581
C      8.1343     59.6556      1.4590
C      8.1528     59.9236     -0.0684
O     10.4840     60.8573      1.0618
6

C     31.6080     10.9700     18.2824
C     30.7811     10.9633     19.3465
O     32.0256     13.3877     18.6478
C     31.6527     12.2148     18.2902
O     32.9928     10.3312     17.8361
O     30.5895     10.7442     20.5150
6

C      9.4991     60.2698      1.4288
O      7.1489     60.5618      3.0236
O      7.6907     59.7018     -0.2745
C      8.0941     60.3371      2.1542
C      8.2776     59.7185      0.8383
O     10.4602     59.7645      0.9046
6

C      9.2794     60.4266      1.3111
O      7.6702     60.9229      3.3358
O      7.7487     58.8470      0.2852
C      8.2100     60.1879      2.4401
C      8.0509     59.8969      1.0059
O     10.5387     60.4036      1.0683
6

C      9.5856     60.4913      1.2233
O      7.4534     61.3217      2.4505
O      7.8638     59.0117     -0.2088
C      8.0614     60.7272      1.5253
C      8.4300     59.5602      0.8159
O     10.8169     60.7488      1.5897
6

C      9.4702     60.5697      1.3761
O      6.9573     60.5980      2.1119
O      8.9753     59.1025     -0.7825
C      8.1149     60.5302      1.5677
C      9.0813     60.0484      0.1305
O     10.8903     60.3467      2.0928
6

C      9.4058     60.2453      1.3023
O      7.3711     60.5310      2.1197
O      9.3685     59.5958     -1.0537
C      8.0531     60.8555      1.0461
C      8.7954     59.8273      0.0982
O      9.9333     59.8957      2.4836
6

C      8.8224     60.0740      1.0439
O      6.4664     61.0818      1.8193
O      9.0136     59.8590     -1.2682
C      7.3979     60.3710      1.3489
C      8.4269     60.0777     -0.1886
O     10.1091     60.1937      1.6418
6

C      9.2060     60.1954      0.8096
O      6.5092     60.4072      1.1607
O      8.1560     58.8049     -0.9391
C      7.6777     59.9046      1.2168
C      8.4522     59.1271      0.2310
O      9.9869     60.8815      1.5135
6

C     31.7161     11.0859     18.4675
C     30.6240     10.8202     19.3695
O     31.2525     13.5382     18.9615
C     31.0317     12.2745     18.9341
O     33.0597     11.1435     18.2392
O     30.0078      9.6267     19.5052
6

C      9.1911     60.1143      0.9050
O      6.4571     60.5656      0.8788
O      8.0405     58.3812     -0.9619
C      7.6741     60.0495      0.8401
C      8.4331     59.4337     -0.3149
O      9.7985     61.1755      1.3600
6

C     32.2886     10.7315     18.8149
C     30.9028     10.5446     19.2566
O     31.5123     13.3065     19.0955
C     31.6312     11.9904     18.9270
O     33.0529      9.6088     18.4382
O     30.2232      9.4476     19.1947
6

C      9.0074     60.4353      0.2685
O      6.7353     60.8225      1.1468
O      8.5864     59.0336     -1.7835
C      7.7257     60.3888      0.5822
C      8.2612     59.4960     -0.6246
O      9.8018     60.3581      1.2580
6

C      8.6633     59.7667      0.7056
O      6.4111     60.0680      1.1443
O      9.2014     60.0933     -1.6303
C      7.1622     59.6449      0.2401
C      8.3174     59.8344     -0.7523
O      9.7252     59.9743      1.2709
6

C      8.9169     59.9047      0.9542
O      6.5064     59.6076      0.7284
O      9.5641     60.7788     -1.4597
C      7.6189     59.5097      0.2870
C      9.0914     60.1339     -0.4422
O      9.1321     59.7044      2.2374
6

C      9.4988     59.5213      1.2564
O      6.6692     59.2953      0.1357
O      9.7429     60.9527     -0.6217
C      7.7802     59.6144      0.5466
C      9.1023     60.1675      0.1759
O      9.8237     59.5147      2.4523
6

C      9.2951     59.9755      1.4499
O      6.9624     59.6085      0.3826
O     10.1288     61.2144     -0.7406
C      8.2132     59.6542      0.2130
C      9.4072     60.4715      0.3211
O     10.2168     59.8211      2.3757
