9

C      8.0444     56.4187      6.5428
O      8.9032     57.9136      8.4537
O      9.6588     55.9084      8.0942
C      8.7676     56.0367      5.2622
H      9.1854     57.2631      5.0799
H      9.6091     56.1741      9.1886
C      8.8379     56.9116      7.5439
O      8.4163     55.8164      4.0850
O      6.7973     56.3353      6.1334
9

C      8.0170     56.7175      6.4745
O      9.2815     58.0755      8.2900
O     10.0137     55.8686      7.2269
C      8.8384     56.3579      5.0950
H      9.7962     56.0733      5.2191
H      9.3067     55.2850      7.3785
C      9.1713     57.1802      7.3842
O      8.1058     56.2436      4.0647
O      6.8088     56.7404      6.8390
9

C      8.3950     57.0364      6.3634
O      9.6036     58.0899      8.4686
O     10.3352     56.6000      6.6383
C      8.7119     56.3009      5.2132
H      9.3898     55.6000      5.4831
H     10.8714     56.0498      7.4228
C      9.5004     57.4172      7.4187
O      8.1161     55.8144      4.2080
O      7.1430     57.1020      6.3523
9

C      8.2720     56.6065      6.1417
O      8.9487     57.5601      8.1692
O     10.7996     57.5779      6.6608
C      8.8956     56.1450      4.9614
H     10.0518     56.1542      5.1171
H     10.9104     56.5874      6.5664
C      9.3602     57.2368      6.9759
O      8.1977     55.8131      3.8511
O      7.0263     57.1253      6.2905
9

C      8.7063     56.7848      5.8060
O      9.2334     56.9314      8.2062
O     10.5779     58.2276      6.8829
C      9.1435     56.7608      4.4560
H     10.1196     56.9829      3.9157
H     10.8381     59.2265      6.9412
C      9.3954     57.4742      7.1124
O      8.5392     56.4155      3.3754
O      7.4530     56.4103      5.9019
9

C      8.6714     56.6822      5.8387
O      9.3940     56.3803      8.0803
O     10.9621     57.5455      6.4768
C      9.0224     57.5935      4.7370
H      9.8749     58.0451      4.8546
H     10.7188     58.4297      6.4850
C      9.7253     56.7016      6.9662
O      8.7466     57.0609      3.6096
O      7.5007     56.2205      6.0544
9

C      8.4112     56.5228      5.5429
O      9.0985     55.6366      7.7683
O     10.7152     56.4792      6.1530
C      9.3030     57.6731      4.7715
H      9.3853     58.5460      5.3257
H     11.4722     56.3869      6.4296
C      9.2022     56.2383      6.6578
O      9.6559     57.3387      3.5620
O      7.3574     55.9703      5.1881
9

C      8.5363     56.3890      4.9788
O      8.2756     56.2643      7.0362
O     10.5254     55.5443      6.3920
C      9.3755     57.6253      4.5555
H     10.0140     58.7413      4.9245
H     10.8192     56.0646      6.9406
C      9.2046     56.0743      6.1387
O     10.1851     57.7102      3.6094
O      7.2937     56.4187      4.7832
9

C      8.6226     56.3198      4.8876
O      7.4905     56.3693      7.3884
O      9.7405     55.7184      6.9042
C      9.9444     57.5665      4.8455
H      9.8039     57.6193      5.7944
H      9.2691     55.6302      7.9271
C      8.3874     56.1957      6.4937
O     10.4514     57.6284      3.7282
O      8.4242     56.1185      3.7012
9

C      7.4889     56.3455      4.8120
O      6.7472     54.7434      6.1291
O      9.0946     55.2894      6.7099
C      8.4740     57.4712      4.6184
H      7.9196     58.3546      4.5649
H      8.6150     55.1263      7.5639
C      7.8375     55.4361      5.9056
O      9.4434     57.6703      3.8946
O      6.2749     56.5731      4.3769
9

C      7.3606     56.3194      4.5163
O      6.5581     54.5339      5.8623
O      8.9419     55.5382      5.7998
C      8.1082     57.5332      4.8611
H      7.6730     57.8876      5.7978
H      9.1696     55.0766      6.6668
C      7.4566     55.3370      5.5284
O      8.9015     58.0025      3.9722
O      6.2926     56.2323      3.8395
