8

O      6.3759     52.3959     12.5297
O      6.7531     54.7543     12.1670
C      6.8537     53.5209     11.8011
C      7.6061     53.1665     10.4768
O      9.6859     51.9877     10.9078
C      8.4488     52.2241     10.5502
H      7.0541     53.3248      9.6484
H      6.7430     51.8094     11.7800
8

O      6.0111     52.1073     12.4684
O      6.1849     54.6397     12.0987
C      6.5241     53.4252     11.7706
C      7.3027     52.9406     10.7241
O      9.7788     53.1120     11.5830
C      8.6734     53.1604     11.1304
H      7.0708     53.0983      9.6655
H      7.0031     51.9670     12.7613
8

O      5.4255     51.8382     11.5791
O      6.2925     54.1543     11.8173
C      6.5047     52.9085     11.6057
C      7.7132     52.6365     11.0205
O     10.2055     53.3878     11.0677
C      8.9770     53.0615     11.2843
H      7.5929     51.9588     10.0799
H      4.9422     52.0600     12.4074
8

O      5.9547     51.4859     11.8078
O      6.9627     53.5907     11.8186
C      6.8553     52.4357     11.2357
C      7.9471     51.6697     10.5694
O     10.2904     52.5580     10.4806
C      9.1818     52.0365     10.8197
H      7.8707     50.7561      9.6799
H      5.2088     51.6217     12.5280
8

O      5.8875     51.7055     12.0594
O      7.3165     53.5429     11.2423
C      7.1125     52.3501     11.6235
C      7.8271     51.3321     10.7515
O     10.1530     51.8954     10.7172
C      9.0038     51.9316     10.2868
H      7.0866     51.0097      9.9105
H      5.2395     52.3553     12.2658
8

O      5.9358     51.3861     12.2042
O      7.1475     53.6582     11.5826
C      6.9941     52.3626     11.5847
C      7.6543     51.3298     10.7737
O      9.7261     52.3863     10.6936
C      9.0009     51.3561     10.5875
H      7.3373     50.6579     10.1658
H      5.8928     51.9728     13.0296
8

O      5.7549     51.3928     12.2425
O      6.9686     53.3027     11.2481
C      6.8778     51.9824     11.4951
C      8.1223     51.2419     11.3748
O      9.6358     52.8228     10.9987
C      8.9529     51.9209     10.4832
H      8.7692     51.0712     12.1737
H      5.3113     52.4119     12.6972
8

O      5.5328     51.5837     11.4233
O      6.5669     53.6468     10.7554
C      6.7315     52.4910     11.2872
C      7.7158     51.3796     11.5151
O      9.5538     52.9547     11.2542
C      8.9798     51.8849     11.4823
H      7.4205     50.2755     11.7655
H      5.4346     50.7486     10.8573
8

O      5.4154     51.6088     10.6909
O      7.2390     53.2604     10.5366
C      6.6834     52.1853     10.9803
C      7.6146     51.3092     11.7071
O      9.9017     52.5447     11.5275
C      8.8795     51.8019     11.3573
H      7.4218     50.1503     11.7000
H      5.0565     51.1835     11.5818
8

O      5.5710     51.7412     10.8444
O      7.3645     53.5495     10.6713
C      6.9737     52.3208     10.8449
C      7.7928     51.5158     11.6959
O     10.2312     52.4375     11.2734
C      9.0455     51.9729     11.4125
H      7.2952     50.4630     12.0553
H      5.7498     50.7345     10.9520
8

O      6.0045     52.1587     11.4009
O      7.5418     53.9662     10.9435
C      7.3457     52.6875     11.1100
C      8.2913     51.5976     10.9043
O     10.9393     51.6057     10.8331
C      9.6766     51.6904     10.7896
H      7.9729     50.5111     10.9276
H      6.0074     51.2419     11.1388
8

O      6.7041     51.9770     11.8396
O      8.3115     53.6795     10.9515
C      7.8265     52.5665     11.1587
C      8.5939     51.4367     10.2625
O     10.9922     51.3995     10.2816
C      9.7449     51.2568     10.0714
H      7.9444     50.6370     10.5318
H      5.8189     52.1951     11.3346
8

O      6.6614     52.0853     11.5480
O      8.5545     53.5488     10.9860
C      7.7949     52.5384     10.7018
C      8.4264     51.3517      9.9921
O     10.7855     50.4989     10.6232
C      9.5530     50.6774     10.3314
H      7.7796     50.5504      9.6152
H      5.8238     52.6455     11.6443
8

O      6.3809     51.7946     10.9872
O      8.2750     53.5142     11.3132
C      7.7717     52.3414     11.0936
C      8.5319     51.3959     10.4098
O     10.6106     49.7168     10.6561
C      9.4488     50.2677     10.5833
H      8.7090     51.3314      9.2469
H      6.2573     52.0154     11.8327
8

O      6.5850     50.6079     10.5511
O      7.8093     52.9589     11.4898
C      7.5759     51.8656     10.9866
C      8.8239     51.5493     10.0459
O     10.4998     49.8034     10.1530
C      9.4200     50.4727     10.3295
H      9.2948     52.2328      9.3246
H      6.3331     50.7496     11.5817
8

O      7.0977     50.0753     11.2959
O      7.1163     52.8521     11.1823
C      7.5567     51.5625     11.1128
C      8.8978     51.5091     10.6144
O     11.0901     50.4834     10.5682
C      9.8644     50.7256     10.6412
H      9.1477     52.6062     10.2562
H      6.9738     50.0532     12.3476
