6

O     17.6455     71.1366     13.5525
C     17.5034     71.1489     15.0265
O     17.0408     72.8774     16.8345
C     17.2680     69.8215     13.4484
C     17.3435     71.9695     15.9438
O     16.7573     68.6919     13.0937
6

O     17.9703     71.2557     13.1406
C     17.6639     71.2125     14.6940
O     16.7619     72.3949     16.9263
C     17.0289     70.2698     13.4416
C     17.1259     71.7269     15.8662
O     16.6336     69.0500     13.2264
6

O      5.4541     14.7947     18.2499
C      7.7100     13.8176     18.1436
O      8.3133     12.8072     17.0892
C      8.9271     13.6973     16.0104
C      6.6491     14.3219     17.9207
O      9.4650     14.3097     15.2020
6

O      5.4024     14.6396     17.7317
C      7.8406     14.2178     18.0780
O      8.4440     13.0277     17.5877
C      8.9397     13.3959     16.2920
C      6.7603     14.6259     17.7124
O      9.3701     13.6569     15.2310
6

C     11.6425     65.4255      2.9916
C     12.9369     64.7837      3.0930
O      8.9909     65.0268      1.2377
C     10.0204     65.4308      1.7670
O     14.0467     64.2524      2.7442
O     10.8659     66.4400      2.0935
6

C     11.7871     65.2204      2.3575
C     12.3274     64.1429      2.7915
O      8.9201     65.4535      2.1101
C     10.2199     65.4528      2.0361
O     13.0396     63.5248      3.6972
O     11.1641     66.4845      2.2825
