9

C     16.6243     26.6867     26.9625
O     17.2396     26.0311     26.0735
C     16.2274     26.0181     28.3611
C     15.7002     27.5994     26.2682
H     16.5611     26.7841     30.0714
O     14.5181     27.0925     26.3964
O     15.4655     25.1795     28.9253
O     17.0206     26.8989     29.2287
O     16.3833     28.3167     25.4611
9

C     16.4851     26.6403     26.7141
O     17.6228     26.2132     26.4385
C     15.9268     26.5581     28.1359
C     15.4579     27.9892     26.1887
H     17.4479     27.7753     28.8353
O     14.5747     27.6124     25.3359
O     16.2122     25.3182     28.5087
O     16.6750     27.6127     28.9918
O     15.9658     29.0964     26.7048
9

C     16.2045     27.8245     27.1682
O     17.3707     27.7910     27.3473
C     15.5161     26.8947     28.3697
C     15.5541     28.7090     26.1236
H     16.0614     30.0106     26.9949
O     14.5341     28.1184     25.5715
O     15.7774     25.7752     27.6934
O     15.2477     27.2770     29.4953
O     15.0933     29.7915     27.1080
9

C     15.6655     27.0640     27.3839
O     16.9881     27.2068     27.5331
C     15.3160     26.3151     28.7241
C     15.3418     28.2482     26.8043
H     15.1661     30.5169     26.5448
O     14.4767     27.9255     25.9067
O     14.6439     25.2792     28.1529
O     15.3847     27.0498     29.7880
O     15.3930     29.5777     27.1051
9

C     15.1320     26.8673     27.9888
O     16.5923     27.3110     27.3990
C     14.4751     26.2852     28.4497
C     14.4724     27.7668     26.8709
H     15.7474     28.6666     26.1647
O     14.3495     26.9647     25.9749
O     14.0916     25.0619     28.4094
O     15.4970     26.7353     29.5245
O     15.3244     29.0168     26.8885
