7

O     28.5992     31.6471     22.3438
H     28.8538     31.0813     21.6060
C     26.3920     30.1648     22.0733
C     27.5413     29.5092     21.4497
C     27.5200     30.5991     22.7220
O     28.1177     29.0223     20.3791
O     26.2733     31.2781     22.9351
7

O     27.8684     32.0729     22.1274
H     28.0140     32.1966     21.2069
C     26.3855     29.6797     22.4282
C     27.8951     29.5015     22.0779
C     27.4522     30.6729     22.6180
O     28.6364     28.6648     21.4261
O     25.9856     30.4374     23.5211
7

O     27.4732     32.3592     22.5700
H     28.2617     32.4319     21.8865
C     26.5305     29.8764     23.0539
C     27.4242     29.5758     21.8736
C     26.6251     30.9536     22.4105
O     28.5684     29.1034     22.0894
O     25.9166     31.0002     23.6910
