9

C     20.4023      3.0300      8.3159
O     21.6766      2.4403     10.8831
H     20.5661      3.1028      6.3738
O     21.1326      3.2547      7.1379
O     19.1693      2.4935     10.6890
C     19.8295      3.0045      9.3587
C     20.4728      2.6124     11.1909
C     20.9714      3.2365     12.8132
N     22.0173      3.2847     13.1568
