6

C     22.6586     68.6964      2.0980
O     26.1473     69.3569     -0.3701
C     25.5378     68.8564      0.6208
C     24.5568     68.0777      1.1315
C     23.6084     68.2337      1.9498
O     21.7185     69.5547      2.2640
6

C     23.1268     69.0259      2.2351
O     26.4539     69.5259     -0.4353
C     25.9834     68.6362      0.6186
C     24.7772     68.5798      0.9342
C     23.8489     67.8944      1.7989
O     22.4805     70.0585      2.1373
