9

C     22.8674     68.3927      1.5366
O     27.0423     69.2709     -0.5073
C     25.8008     68.8227      0.2674
O     24.5077     66.3883      2.0432
C     24.9531     68.5241      1.0510
H     27.2309     68.4696     -0.9651
C     24.0046     67.6777      1.8300
H     23.7577     65.9760      2.3700
O     22.2759     69.1088      2.2885
9

C     23.5534     68.3574      1.7870
O     27.4261     69.1785     -0.5846
C     26.1448     68.6076     -0.2778
O     24.1843     66.0963      2.2275
C     25.1081     68.1399      0.3784
H     27.3876     69.8284      0.0716
C     24.1502     67.5601      1.2301
H     23.2670     66.2655      1.9211
O     22.7710     69.3229      1.5740
9

C     23.2016     67.7493      1.0695
O     27.2760     69.4527     -0.9798
C     26.1678     68.8018     -0.2978
O     24.5578     66.6962      2.2603
C     25.2725     68.3254      0.3277
H     27.4388     70.2804     -0.2897
C     24.4212     67.5427      1.1488
H     23.6785     66.3367      2.2873
O     22.8229     68.7268      1.7955
9

C     23.4959     68.2778      1.4865
O     26.8209     69.5649     -1.2110
C     25.8203     68.9661     -0.4215
O     25.1369     66.4241      1.9702
C     25.0736     68.2417      0.3388
H     27.0641     69.0086     -1.8630
C     24.3868     67.3568      1.1475
H     24.4547     65.8634      2.4330
O     22.6973     69.0247      1.8595
9

C     23.3615     68.7274      1.6296
O     26.9354     69.4079     -0.8077
C     25.8961     68.3852     -0.5077
O     24.3078     66.3080      1.7531
C     25.2815     68.4279      0.4940
H     26.6242     70.3314     -1.0241
C     24.2602     67.8119      1.4392
H     25.2148     66.2397      2.2159
O     22.2798     69.3043      1.7763
9

C     23.0839     68.6802      1.4647
O     26.4219     69.7850     -0.6891
C     25.6187     68.8738     -0.0537
O     24.1352     66.1872      1.6933
C     24.9204     68.1045      0.5248
H     27.1262     69.5976     -1.3412
C     24.0201     67.6274      1.5566
H     25.0845     65.9653      1.3728
O     22.2315     69.6211      1.1828
9

C     22.5407     68.4725      1.2870
O     26.2459     69.2378     -0.8449
C     25.7509     69.2197      0.4188
O     24.1728     66.4790      1.3932
C     24.7147     68.6060      0.7512
H     26.3807     68.4980     -1.5467
C     23.6820     67.8880      1.1434
H     24.0558     66.4424      2.3742
O     22.4784     69.7110      1.1533
9

C     22.7036     68.8937      1.9468
O     26.5393     69.2294     -1.1032
C     25.9077     68.6268      0.2888
O     23.9675     66.5005      1.1481
C     24.8771     68.5618      0.9254
H     27.1554     70.0560     -1.1198
C     23.7313     68.2332      1.5731
H     24.7179     66.2871      0.4402
O     22.4378     69.8655      1.1429
9

C     23.4438     68.9410      1.3881
O     26.6634     69.4681     -1.3040
C     26.4728     68.7676     -0.0211
O     23.9916     66.5928      1.1262
C     25.3063     68.4602      0.2939
H     25.5466     69.5365     -1.3897
C     24.2378     67.9614      1.0921
H     24.9332     66.4311      1.5570
O     22.4450     69.6678      1.4654
