69

C     32.4686      9.9767     18.8609
C     28.5081      6.8916      7.2253
C     28.4887      6.4908     11.9037
C     35.1112      1.3405      2.8221
C     30.3963      5.2957      8.4549
C     32.5112      3.3902      6.3743
C     30.3300      2.8115      8.9136
C     29.5107      9.7274     11.9210
C     27.9465      5.2882     12.4918
C     29.2343      6.5082      9.5489
O     27.9583      2.9803     12.2014
C     31.7379      9.2720     16.1493
C     28.3839      4.0656     11.5596
O     36.3409      1.1203      3.2630
O     29.3959      7.9329     15.1543
O     35.1620     10.1864     17.4173
O     30.6156     -0.8289     11.6027
C     28.1336      5.9105      6.2798
C     29.8109      5.2239      9.8760
C     30.0396      8.9124     14.2502
C     30.0760      8.3240     11.1421
C     30.2645      0.7215     10.7860
C     30.4273      3.8494      7.9276
C     30.4002      1.4376      8.6365
C     33.3942      1.6406      4.7382
C     30.3327      3.0167     10.3479
C     30.5310      0.2572      9.4564
C     29.7390      6.6365      8.0732
C     28.8953      7.3750     13.0103
O     28.1096      8.3848      7.5509
O     31.8178      1.0348      6.4135
C     34.0877      9.2516     17.2605
H     33.1142     10.3316     15.4160
H     28.6481      9.1811      7.1739
C     31.1446     10.0420     19.0927
C     30.6908      9.7894     15.2556
C     31.0260      1.6938      7.4292
C     29.7055      8.7439     12.9343
C     28.9941      7.2127     10.7092
C     28.6166      7.1352     14.1822
C     33.0817      9.7091     16.4550
O     26.6881      4.0242     13.8997
H     32.3453     -1.1173      9.3206
H     31.2282     -1.3944     10.2681
O     32.3979     12.5428     19.1937
O     27.2742      6.3780     14.5204
H     30.0370     -1.4434     11.3105
H     32.9799      7.9537     15.8703
H     34.6610     10.9871     17.9417
H     35.5958      7.5282     16.9805
C     32.4861     11.2957     19.3710
C     30.9154     11.1413     14.9218
O     27.9020      5.7930      5.0648
O     30.4112     12.0577     15.5705
O     28.7492     10.5135     11.3203
O     33.6021      9.0681     18.8706
C     32.7898      2.0040      5.8773
C     31.4308      3.1788      7.2005
O     32.9309      5.6900      7.1336
C     34.0778      1.6495      3.7127
N     31.3413     -0.8605      9.2037
O     34.7316      7.9503     16.5696
O     32.0989      7.8706     15.7881
O     29.9678      9.6723     18.7920
C     29.6326      4.2833     10.7987
C     33.1345      4.5990      6.6150
C     27.3476      5.1265     13.7574
O     29.7223      1.9423     11.0706
O     30.5838      8.9056     10.1148
69

C     32.3826      9.3484     18.8101
C     29.4986      7.6791      8.3710
C     28.6750      6.4622     12.6491
C     35.4322      1.6662      3.2083
C     30.3674      5.0796      8.7169
C     32.7579      3.7615      6.6606
C     30.1849      2.5227      9.1856
C     31.1476      8.6690     12.8200
C     27.7969      5.3542     12.7758
C     29.5829      6.3711     10.1378
O     27.2720      3.5947     10.8216
C     33.2432      8.9901     15.2731
C     27.8954      4.2485     11.8408
O     34.3804      1.2231      2.5007
O     30.1937      7.0544     16.0427
O     35.5708      9.6677     17.5033
O     30.1779     -1.5425     11.0307
C     29.3519      7.1381      7.1717
C     29.6257      4.9244      9.9959
C     31.1403      7.7176     15.2447
C     30.3561      8.2599     11.6719
C     30.1813     -0.0924     10.5079
C     30.6212      3.6026      8.3089
C     30.5538      1.2687      8.6494
C     34.8150      2.8541      5.0691
C     29.3669      2.4284     10.3596
C     30.3065     -0.0895      9.3445
C     30.5310      6.6622      8.8614
C     29.5229      7.0496     13.6898
O     29.0397      8.9238      9.1682
O     32.6539      1.3453      6.9343
C     34.6829      8.5143     17.3214
H     35.2199      9.4548     15.4299
H     28.7644      8.5530     10.1574
C     31.1633      9.6674     18.4016
C     31.9055      8.9488     15.2948
C     31.7854      1.8295      7.8085
C     30.5306      7.8580     13.8483
C     29.3310      7.0535     11.4312
C     29.1090      6.6955     14.9810
C     34.2421      9.0189     15.9342
O     25.6044      5.4587     13.9350
H     30.9539     -0.5213      7.5394
H     31.3214     -1.9109      8.8368
O     32.2649     11.8783     19.4852
O     28.0209      5.9988     14.9022
H     30.1737     -1.5822     11.8513
H     34.1552      7.3690     14.1591
H     35.0498     10.3272     17.9265
H     36.2915      7.6410     16.7585
C     32.5643     10.6552     19.2456
C     30.9186     10.0425     14.7899
O     28.9621      7.5370      6.0019
O     30.3457     10.6240     15.7699
O     31.3778     10.0152     13.3942
O     33.4053      8.4711     18.0481
C     33.7133      2.8540      5.9269
C     31.7072      3.2392      7.4303
O     33.1452      6.2405      6.4940
C     35.9017      2.3123      4.1340
N     31.0073     -0.9516      8.4680
O     35.5321      7.3137     17.3783
O     33.5919      7.3554     14.8999
O     30.0813      9.5649     17.7213
C     28.9481      3.7485     10.7764
C     32.5948      5.1498      6.9479
C     26.8411      5.5469     13.8043
O     29.4314      0.8736     11.0885
O     30.4940      8.7997     10.3600
