83

H     13.1775      9.9753     16.9937
C      9.6387     17.2833     21.6811
C      6.0230     16.4443     24.7022
C     14.2967     14.8325     13.6719
C     11.5594     15.0404     23.6955
C     10.4249     12.6684     25.9263
C     10.5609     16.3542     21.7619
C      4.6895     16.0165     24.5251
C      2.5830     14.9706     24.0155
C      6.7774     17.5230     22.2583
N      5.4524     17.6530     22.0027
O      8.2906     12.5493     21.8929
O     14.8833     12.1352     20.2959
C      7.6866     17.8723     23.2103
N     16.7115     14.4268     10.5269
O     15.3661     10.7972     16.0653
O      9.5202     11.5361     26.1543
H      0.5160     14.3871     23.6736
H      8.1004     13.3287     21.2874
C      9.0084     15.3997     28.9545
C     16.5911     14.9002     11.9549
O     13.2702     13.6506     28.4787
C     11.2133     16.3863     23.0545
C      8.9212     16.9377     20.4779
C     11.4785     13.8316     22.9134
C     14.4244     13.6471     18.2137
C     15.2234     13.6395     15.9488
C     10.7028     15.2697     20.7524
C     10.5425     12.3279     19.3036
C     11.5406     12.0434     18.4362
C     15.4026     14.0684     17.3149
C     13.6982     13.0877     20.2944
O     10.2357     14.3996     28.9081
O      3.9562     16.1745     27.1010
N     16.9622     13.4683     10.1634
O      7.5667     17.0366     20.6568
C      3.7906     15.3820     23.4321
C     12.6773     13.3786     27.3277
O     13.2410     13.5004     26.1195
C     14.6673     14.1642     14.9878
C     12.5432     11.8009     17.6701
C      3.8948     16.0514     25.6725
C      9.4264     11.8432     21.1839
O     11.7017     11.2384     23.6820
O      2.7148     15.1980     25.3360
O     12.7466     13.8819     11.7580
H     15.0125     11.7475     19.4917
O      1.4266     14.3898     23.2846
C     10.5137     14.0475     27.6183
C     13.5947     14.2124     12.6298
O     15.7444     16.2158     12.0321
O      9.8248     10.5025     21.2819
C     15.0317     11.6969     16.8792
C     13.9699     12.4155     17.5978
C      9.1906     16.1253     27.7308
O     16.2355     14.9335     17.7345
N      9.6486     12.5841     19.9688
C     11.3396     13.0345     26.8701
O      8.7431     17.3646     27.3035
C     10.7755     13.1723     24.7479
C     10.4289     15.5950     25.7180
C     10.0026     15.1761     26.9670
C      7.1692     16.5892     25.5644
O      8.0539     15.4503     29.7487
O     12.4693     10.6605     16.6495
H     10.7401     10.5564     20.8506
H     12.0648     10.7907     22.9002
H      3.3592     15.3576     27.3594
H      9.6406     11.1315     27.1655
C     12.4723     13.6911     20.3314
C     13.5614     14.1813     19.3377
C     11.3208     14.0716     21.3383
C     11.1662     12.5956     23.6752
C     10.2521     17.2450     23.8649
C      9.6791     16.6774     25.0215
C     11.2073     14.5745     24.9524
C      8.3590     17.0523     25.7528
C      9.2009     17.8659     22.9751
C      7.0679     17.5821     24.6260
C     15.6960     15.1902     12.9343
O      9.7552     15.9441     19.8123
O      4.4961     15.4117     22.3348
H      5.4870     18.4259     21.2225
