81

H     11.7729     11.7112     16.3221
C      9.7927     16.8182     21.8938
C      6.7143     16.3567     24.4233
C     13.9379     14.8659     13.3930
C     10.9909     14.5869     24.0755
C     10.5963     12.7280     26.8652
C     10.9159     15.9080     21.9491
C      5.3526     15.7414     24.4657
C      3.3493     14.8858     23.3956
C      7.2740     18.2260     22.7789
N      6.3353     18.9195     22.2790
O      8.6310     11.9969     21.4135
O     14.3994     11.3292     20.9461
C      8.3087     17.7497     23.5880
N     16.0921     13.5814     10.5020
O     15.9634     11.0881     16.5855
O      9.1941     12.4531     26.8699
H      8.0736     12.6017     20.7966
C      9.6512     15.9609     29.9544
C     15.8250     14.4064     11.5454
O     13.1683     15.0901     28.0218
C     11.1563     15.8325     23.4176
C      8.7947     16.3524     21.0044
C     11.2607     13.4164     23.2655
C     13.9828     13.5762     18.2849
C     14.4971     14.9608     16.1116
C     10.7080     14.6958     21.5251
C     11.3206     11.8803     19.2632
C     12.3705     11.4263     18.5284
C     14.6556     14.7818     17.5867
C     13.8234     12.5573     20.4985
O     10.3666     14.6015     29.7323
O      4.5937     15.9423     26.7964
N     16.8643     13.0890      9.8345
O      7.6881     17.0847     20.9454
C      4.8156     15.5370     23.1877
C     12.9580     14.0121     27.3043
O     13.6317     13.4424     26.4962
C     14.0915     15.0576     14.7633
C     13.1485     11.3777     17.4497
C      4.5658     15.4658     25.4534
C      9.6471     11.5617     20.4455
O     10.9057     11.2762     23.0961
O      3.3853     15.0567     24.8443
O     14.1030     12.8185     12.2756
H     14.7173     10.8169     20.1673
O      2.1917     14.8500     22.6470
C     10.9915     14.4899     28.4419
C     13.3372     13.5010     12.8177
O     16.0353     15.7926     12.0769
O      9.8684     10.1486     20.2852
C     15.1261     12.0404     16.4260
C     14.2232     12.4508     17.4859
C      9.4715     16.2272     28.5422
O     15.7598     15.4566     17.3238
N     10.3496     12.4510     19.9002
C     11.4856     13.3917     27.6672
O      9.2254     17.4009     27.9337
C     10.9614     12.7650     25.3672
C     10.2113     15.2418     26.2325
C     10.1203     15.3391     27.6410
C      7.3045     16.2673     25.6432
O      9.7689     16.6500     31.0312
O     12.3400     11.0277     15.9689
H      9.2961      9.5328     19.7362
H     10.4672     10.5042     23.4303
H      4.2956     16.7941     27.2000
C     12.7769     13.2553     20.9225
C     13.3438     13.5792     19.5745
C     11.5810     13.5783     21.7723
C     11.3013     12.3633     24.1394
C     10.4675     16.9902     24.0956
C      9.9112     16.5235     25.4031
C     10.6198     14.1534     25.3823
C      8.6002     16.8957     25.8618
C      9.7336     17.7826     23.0318
C      7.6534     17.5417     24.7744
C     15.0961     14.9187     12.6079
O      9.4631     14.8773     20.9183
O      5.0734     16.7069     22.7523
H      5.8315     18.4360     21.5087
