11

H      8.3754     52.3158     20.1141
O      8.2260     56.2510     18.2028
O      6.5875     55.6594     21.1384
O      9.6728     54.5895     20.4111
C      8.1273     56.5277     19.3982
C      8.2219     54.2348     20.2112
C      7.5118     55.5701     20.1811
O      7.7462     52.8852     20.6031
O     10.9294     54.4797     17.0942
C      9.3613     54.0500     19.0119
C     10.0203     54.0342     17.9473
11

H      7.7324     52.8705     20.4733
O      8.2465     56.1501     18.2287
O      6.2183     55.6639     20.9113
O      9.6758     53.9784     20.8596
C      8.0715     56.1532     19.4809
C      8.4799     54.5079     20.2646
C      7.3324     55.4581     20.3444
O      7.2559     53.4073     19.9162
O     10.8687     54.2235     17.3001
C      9.9445     54.3758     19.5108
C     10.4066     54.0331     18.3899
11

H      7.7837     52.8130     21.2684
O      8.2167     56.9050     19.6779
O      6.5432     55.0959     21.9157
O      9.5480     54.3217     20.7753
C      7.9366     55.7694     20.2053
C      8.3609     54.3539     19.8597
C      6.6784     55.7434     20.8811
O      7.4807     53.3119     20.5220
O     10.9338     54.3735     17.3895
C      9.8328     54.3986     19.4190
C      9.9950     54.2829     18.2008
11

H      6.9312     53.7687     20.6336
O      8.0818     57.3315     19.1097
O      6.3816     55.8174     22.0149
O      9.7752     54.1934     20.3896
C      7.9290     56.2371     19.8378
C      8.2927     54.7010     19.6592
C      7.0300     56.0537     21.0085
O      7.7206     53.3843     20.2017
O     10.7938     54.2227     16.9024
C      9.4895     54.4771     19.0470
C     10.3573     54.2402     18.0136
11

H      7.4047     52.1785     19.2624
O      8.2330     57.3279     18.6190
O      7.6344     55.9347     21.2732
O      9.6680     53.0081     20.4976
C      8.5173     56.3874     19.3901
C      8.4292     53.6078     20.0237
C      8.1920     55.2736     20.2459
O      7.2858     52.7220     19.9946
O     11.0411     54.6053     17.7254
C      9.6416     53.4308     19.1453
C     10.3873     54.4974     18.6861
11

H      7.1108     51.5748     20.1986
O      7.9847     56.9588     18.9945
O      7.8853     55.5870     20.9749
O      9.4098     52.1822     20.2596
C      8.3695     55.8416     19.4911
C      8.1828     53.1233     19.9548
C      8.1061     54.5569     20.1692
O      6.9074     52.4619     20.3844
O     11.1328     54.8533     18.1255
C      9.6329     53.3477     19.6655
C     10.4500     54.1034     18.5570
11

H      6.5720     52.8724     20.6959
O      8.4832     57.1353     18.9550
O      8.5104     55.0329     21.6959
O      9.4957     52.5135     19.2085
C      8.4935     56.1513     19.6744
C      8.4637     53.2174     19.8953
C      8.3233     55.0401     20.4388
O      7.0573     52.4355     19.9417
O      8.8429     55.4490     17.0664
C      8.8268     53.6897     18.4677
C      9.0466     54.7556     18.1199
11

H      6.5656     53.3284     21.4329
O      8.1192     56.8466     19.1011
O      8.3950     55.0481     21.4386
O      9.1802     52.2144     18.8907
C      8.3216     55.6479     18.9901
C      7.9855     53.2383     19.5205
C      7.9924     54.6077     20.2790
O      7.0115     52.5616     20.4461
O      9.3412     55.4927     17.0587
C      9.1447     53.5007     18.6007
C      9.2020     54.8373     18.2621
