9

O      8.0558     56.9792     18.6727
O      7.1594     55.3093     21.7441
O     10.0025     54.1694     20.4582
C      8.4212     56.3630     19.6984
C      8.6488     54.5004     19.9750
C      8.0675     55.7175     20.9498
O     10.8669     55.2103     17.1541
C      9.7379     54.3891     18.9677
C      9.7879     55.1467     17.8021
9

O      9.5204     57.1343     19.9514
O      8.4742     55.6492     22.2536
O      8.9632     52.8489     20.0885
C      8.6409     56.6913     20.7308
C      8.1660     53.9532     20.6719
C      8.3368     55.1959     20.9699
O     10.2022     54.1613     16.9208
C      9.2123     53.7969     19.0782
C      9.8459     54.3914     18.2027
9

O      9.6401     56.8773     19.6506
O      8.0465     55.5410     22.1533
O      9.1539     52.8465     19.2543
C      8.9709     56.2081     20.4868
C      8.0431     53.7078     20.2563
C      8.2993     54.9091     21.0326
O      9.9438     55.1504     17.4807
C      9.2637     54.1750     19.3756
C      9.2730     55.1603     18.4836
