82

N     19.3519     12.8539     11.6974
H     12.3818      9.9256     19.3543
C      9.1185     16.8012     22.2527
C      6.5177     16.8352     25.2500
C     15.2537     14.1771     13.9385
C     11.0042     14.5139     24.1845
C     12.0580     12.7894     26.7648
C     10.2513     15.7913     22.1690
C      5.3782     15.8644     25.0336
C      3.5950     14.7238     23.5293
C      7.2658     19.1522     23.0672
N      6.4341     19.4217     22.3619
O      7.6764     11.9416     22.0618
O     14.4260     11.5391     20.3475
C      8.2490     18.6676     23.9512
O     15.6401     12.5495     17.6274
O     11.2111     11.6109     27.2720
H      7.0165     12.6288     21.9348
C     10.6180     18.4630     22.9990
C     11.4873     16.2089     29.6672
C     17.8728     14.4312     12.7835
O     13.3604     15.7941     27.3253
C     10.5679     15.7203     23.5249
C      7.9166     17.0117     21.5653
C     11.3115     13.5568     23.3375
C     13.1450     13.9685     18.3313
C     14.8476     14.8419     16.5651
C     10.3217     14.7458     21.2334
C     10.6281     11.9677     20.1301
C     11.4183     11.6307     19.3610
C     14.1346     14.8556     17.9894
C     13.7474     12.9026     20.6437
O     12.2656     14.8294     29.6760
O      5.2643     15.7364     27.4288
O      6.7603     17.4296     21.2657
C      4.8326     15.4498     23.6562
C     13.6731     14.6098     26.8388
N     18.5992     13.5337     12.1202
O     13.6183     14.1434     25.5286
H     11.5978     10.6328     26.7451
C     14.8549     14.6182     15.1932
C     12.3177     11.5768     18.3913
C      4.9099     15.2947     25.9674
C      8.4410     11.8819     20.6092
O     12.0924     11.2330     23.6160
O      3.7940     14.6853     25.3947
O     13.3700     13.4212     12.4096
H     14.9561     11.6621     19.6340
O      2.7769     14.2770     22.6250
C     11.9701     14.2595     28.4712
C     14.5324     13.3784     13.0851
O     16.9308     15.5247     12.2934
O      7.8987     11.2282     19.7169
C     14.4460     12.3154     17.1882
C     13.0525     12.6074     17.6177
C     10.4797     15.9392     28.6857
O     14.9782     15.8868     17.8433
N      9.6630     12.3739     20.9205
C     12.7783     13.5013     27.5431
O      9.0424     16.3106     28.2007
C     12.3579     13.0143     25.3476
C     10.4616     15.1076     26.3846
C     10.9201     15.0471     27.8186
C      7.7426     16.9955     25.9798
O     11.5310     19.2701     22.8068
O     11.5587     16.8672     30.7539
O     12.5142     10.1253     18.4112
H      4.8165     15.0096     27.9541
C     12.5785     13.4077     21.2011
C     13.1923     13.9940     19.8656
C     11.3059     13.6549     21.9238
C     12.1010     12.4732     23.9281
C     10.1747     16.6610     24.3865
C      9.9215     16.2593     25.8266
C     11.0987     14.0546     25.5092
C      8.8317     16.5993     26.8514
C      9.4966     17.7471     23.4926
C      7.6114     17.5593     24.5710
C     16.5816     14.8356     13.3522
O      9.6960     15.0037     20.1123
O      5.5703     16.3096     23.0631
H      5.6260     20.3234     22.0716
