82

H     13.5197     10.4275     16.9332
C      9.5612     17.2401     21.9976
C      6.3210     17.1587     25.3547
C     15.4032     14.0907     13.3869
C     11.4008     14.8147     24.1135
C     11.1290     12.4218     26.5094
C     10.3621     16.0397     22.1224
C      5.0254     16.4734     25.1507
C      4.0948     15.0982     23.6457
C      7.1920     18.4450     23.1474
N      6.2312     18.7297     22.2905
O      7.7187     11.2028     22.2328
O     14.0763     12.0255     19.5683
C      8.2199     18.2026     24.0296
N     16.3116     14.5499     10.3964
O     15.3490     12.3407     16.9734
O     10.4609     11.2658     27.1383
H      7.3089     12.1984     22.4990
C     10.2741     19.4495     23.5314
C     10.7613     16.4155     29.7146
C     16.5129     15.2482     11.5373
O     13.8142     14.4914     28.2900
C     11.1764     16.0249     23.4154
C      8.4703     17.4619     21.1756
C     11.4969     13.8118     23.0243
C     13.2327     14.1529     17.9678
C     15.2088     14.6059     15.9078
C     10.4470     15.1896     21.1097
C     10.3649     11.5587     19.8460
C     11.0551     11.5104     18.8199
C     14.2732     14.8874     17.2846
C     13.0796     13.0065     20.1467
O     11.2442     15.0027     29.5068
O      5.2472     15.1046     27.3742
N     16.4093     13.4668      9.9345
O      7.5115     17.2292     20.3579
C      5.0631     16.2030     23.6710
C     13.2709     13.7280     27.3802
O     13.7747     13.4639     26.1258
H     10.2702     10.5241     26.5002
C     15.1590     14.3067     14.7225
C     11.9874     11.5980     17.8688
C      4.6078     15.5700     26.0912
C      8.6899     11.1861     20.9776
O     11.7229     11.4810     24.0330
O      3.6471     14.8630     25.4139
O     13.2959     13.2959     11.7023
H     14.5442     11.8356     20.5069
O      3.3847     14.7872     22.6050
C     11.1923     14.4045     28.2628
C     14.1754     13.4065     12.3945
O     16.8989     16.4210     12.4052
O      8.5791      9.9001     20.3433
C     14.2176     12.5646     16.7598
C     12.9737     12.6897     17.6642
C      9.9357     16.3873     28.3975
O     15.3046     15.7545     17.0753
N      9.8353     11.8554     21.0660
C     11.8876     13.3370     27.3722
O      8.8917     17.2419     28.2491
C     10.7448     13.1368     25.3157
C     10.6279     15.6881     26.3387
C     10.4267     15.3349     27.7017
C      7.3200     16.8947     26.4152
O     11.2754     19.0131     23.4392
O     10.9279     17.2136     30.6854
O     12.6554     10.2279     17.6444
H      5.7546     14.3472     27.0845
C     12.4620     14.0124     20.8288
C     12.7088     14.1409     19.4198
C     11.2894     14.0112     21.5389
C     11.4113     12.7989     24.0258
C     10.4141     16.9445     24.2386
C      9.8704     16.7400     25.6009
C     10.7985     14.4897     25.3828
C      8.7628     17.3134     26.3418
C      9.4905     17.7839     23.4434
C      7.6904     17.1431     25.0334
C     16.0504     15.2559     12.8895
O      9.7752     15.3435     20.0325
O      4.9997     16.7140     22.4863
H      5.9683     17.8591     21.7280
