105

O     28.7588     37.7294      5.2067
O     29.5071     32.5931     -3.0097
H     32.4061     38.8839      6.7534
C     32.3418     39.9719      4.9666
H     29.0376     33.3944     -5.3226
C     28.1577     40.1793     -4.6195
C     28.1765     36.7172     -3.6075
C     31.5824     41.9478      3.8308
C     27.8458     40.3400     -3.2752
C     28.2139     39.9815      4.1714
O     31.6293     43.5010      3.7742
O     28.4333     43.6480      3.9442
H     26.8966     40.0693      0.7063
H     33.4970     41.9762      4.1728
H     30.3088     42.6431      1.6840
C     26.9708     41.0917     -1.0859
C     28.2712     42.0947      0.8596
C     26.8910     41.8291      0.1642
C     27.2975     35.8735     -2.5191
O     27.7119     43.3293      1.5079
O     31.6481     35.5536     10.8183
H     23.9625     35.5792     -4.4647
O     29.4993     42.2300     -0.1352
C     25.2017     37.2744     -2.4199
C     29.3958     38.6451      9.4990
C     27.7349     40.5899      9.4876
C     27.1895     39.8019     -1.1224
C     30.0073     38.7318      7.2868
C     30.7188     36.5931      8.8194
C     29.9410     37.9180      8.4075
O     27.7508     35.7396     -1.0735
O     26.8639     39.5009      2.3614
O     29.3036     38.2705     10.8596
H     28.8916     38.6977     11.6539
C     26.7212     43.6757      7.4334
C     27.2638     39.7358     10.5694
C     25.4963     40.8253      9.3408
C     27.5074     34.4168     -6.6206
O     25.7753     41.8693      0.8040
H     26.9587     35.6120     -0.6599
C     26.5148     41.5146      9.6011
C     26.4792     44.3969      6.2935
C     29.1146     41.9386      5.3932
C     29.2947     39.8690      7.4388
C     29.1930     41.9064     -5.5727
C     30.3151     41.3852      3.5873
C     26.4994     38.6903      4.9893
C     27.1176     41.1294      6.8721
N     31.1280     39.6553      5.3708
O     29.2785     35.4153     10.4544
H     25.9540     43.5826     -4.1838
C     27.3059     42.9036      6.3172
C     28.0278     38.7037      4.8626
C     28.3095     42.9289      5.2533
C     28.5277     41.0179      6.4749
C     27.9966     34.7453     -3.1118
O     27.7113     39.2741     -2.3017
O     33.7641     39.4088      5.0233
O     30.3383     41.4043     -5.1476
O     27.3239     42.4011     -1.7600
H     30.3774     42.8867     -0.3320
C     28.9135     39.9199      8.8579
C     26.0855     35.0944     -5.0838
C     26.2870     42.7589      9.4627
C     25.8077     36.2720     -3.1736
C     30.4528     35.9241     10.2717
C     31.2924     38.6438      6.3048
C     28.9156     38.9460     -4.8634
C     29.4167     40.7086      4.4653
O     24.4912     41.5417      9.2452
O     26.6737     39.2874      0.1789
O     24.3859     38.1021     -2.1630
O     27.1773     43.5710      8.6967
H     30.8730     37.6680      5.8221
C     24.9983     35.6748     -4.1279
O     25.8758     40.9671      7.0579
H     30.3200     38.7793     -7.0215
H     28.3401     44.1509      1.6447
C     27.0824     42.3574     -4.0387
C     27.3740     34.5033     -4.4385
C     27.8153     41.5967     -5.3638
N     29.4233     38.3200     -6.4827
O     27.3783     40.3262     11.7036
O     26.5070     45.2402      5.3632
H     31.1030     43.5304      4.5960
H     29.1635     44.1726      3.8404
C     27.9422     33.7092     -5.4081
C     27.8470     40.2722      2.7944
C     28.5650     33.5878     -2.3539
C     28.4136     37.6745     -4.3504
C     29.8427     41.8070      2.3259
C     32.5312     41.4486      4.5207
O     28.6190     33.8103     -1.1471
O     26.0340     34.7200     -6.3773
O     25.9467     43.4294     10.4919
O     31.9089     36.3536      8.5558
H     34.0902     39.6406      5.9867
H     30.3469     32.5150     -2.5378
C     28.0523     33.9790     -7.8036
C     27.7134     41.7760     -2.9960
C     28.7236     41.1110      1.8568
N     26.9262     43.7521     -3.9349
O     25.5132     39.4518      4.8257
O     28.5247     33.5293     -8.8973
H     31.8948     35.7841     11.8791
