   96
 8.60913  8.60913  8.60913
 O  1.53603  7.46604  7.24422    -0.59616 -0.08811 -0.36774
 H  0.05491  5.70569  1.45959     0.09065 -2.16581  1.46892
 H  2.77413  5.47784  7.78699     0.38237  1.44791 -0.28389
 O  0.54460  8.14141  4.87346     0.56329 -0.72061 -0.17512
 H  3.42113  5.01321  6.66769     1.37290 -2.36416  0.45011
 H  0.31306  5.94290  6.70214    -5.19154 -1.14916 -1.24657
 O  2.81415  8.26446  3.41392     1.42112 -0.07618  0.51221
 H  7.02601  0.72097  6.49559     2.99216 -0.98149  1.38633
 H  5.92005  7.81545  7.93336     1.05228  1.21529  0.06838
 O  0.43997  1.96730  2.34339    -0.11306  0.22538  0.33543
 H  4.37627  4.08052  0.23127    -0.98720 -2.27078 -3.84459
 H  4.23870  2.19774  7.85016    -0.44625 -1.07480 -1.08720
 O  2.60195  4.55962  7.02433    -0.03388 -0.66688 -0.64105
 H  4.02777  2.96301  3.60123    -1.17848  1.10525 -1.22967
 H  1.01338  6.37176  8.43188    -4.36590 -2.26523  0.47632
 O  7.42005  1.53041  7.17915    -1.16368  0.07637 -0.28053
 H  0.93925  3.16810  1.97783    -2.25257 -1.50895  5.97797
 H  6.10817  3.97843  6.63614     0.33402 -1.46006  1.59419
 O  8.44619  5.55185  3.82313     0.04744  0.78027  0.37692
 H  7.43464  8.50974  4.83030     1.66155  1.76338 -2.08948
 H  4.15451  6.37181  1.73044    -3.76586  0.26748  0.97064
 O  3.56275  5.60945  1.25940    -0.54124 -0.04655  0.04476
 H  0.27962  3.23698  4.96025    -1.07529 -0.48505 -2.24807
 H  6.31708  6.48429  5.07278     1.37105  0.01406  0.55030
 O  6.03828  1.79627  0.81173     1.09613 -0.07540  0.33590
 H  4.14028  5.16271  3.49911    -2.32408 -0.94923 -1.00407
 H  2.40407  8.30028  2.36472     1.19030 -0.91817 -1.55594
 O  1.79702  2.13155  4.50025    -0.70954  0.65751  0.21511
 H  7.93742  7.39191  8.36948     0.71811 -0.27969 -0.19904
 H  7.68077  6.79741  6.72602     1.31990 -0.96603  0.95831
 O  3.34443  2.28212  0.75105    -0.55416  0.64621 -0.61110
 H  7.41842  3.00461  4.97572    -2.47154  1.00557 -1.80948
 H  7.20963  4.48195  2.09292    -0.46584  2.00554  1.41673
 O  0.51231  1.47304  1.11652    -0.92945  0.21166 -0.64754
 H  1.11495  8.00139  3.94546     0.51022  1.33947  0.80299
 H  4.38979  8.25233  7.71017    -2.10969  2.57680 -3.78397
 O  8.09854  7.79874  2.40347    -0.11794 -0.37782 -0.74422
 H  1.93642  4.52616  2.82830    -0.69914 -1.17167  0.90717
 H  0.51568  0.54885  4.81866     1.29762 -0.90558 -0.14866
 O  5.48859  4.21989  5.98584     0.17845  1.07168 -0.31756
 H  5.81324  3.12749  0.28914    -3.22097 -0.89415  0.00957
 H  7.61746  2.51042  6.78522     0.75277  0.60901  1.23312
 O  1.33934  1.05408  7.04380     0.38546  0.29390  1.01263
 H  8.36751  1.31573  7.05427     3.82857 -1.94944 -2.69356
 H  5.51918  1.04847  4.20468    -2.41192 -0.44553  2.02708
 O  7.10404  7.96879  8.11683    -0.30952  0.01526  0.10240
 H  2.63083  5.98326  0.94149     2.88553  0.47280  0.76028
 H  8.49516  0.85951  0.44008     0.64235 -1.03048 -3.22606
 O  0.95407  6.10313  0.83347     0.15717 -0.60606  0.44543
 H  5.64453  4.95674  5.36165     2.24402 -0.75327  0.70392
 H  6.72626  1.33817  8.11527     2.14575  0.10925 -2.32482
 O  6.49727  0.20436  4.99057    -0.44965 -0.29801 -0.57101
 H  4.63149  0.24001  2.37699    -0.17762  2.85721  1.45108
 H  2.88725  1.06751  0.40079     0.37408  0.28342  2.58106
 O  3.31304  5.89128  5.16410     0.19349 -0.14541  0.56913
 H  2.27655  3.95030  1.22385     0.64076  0.12276 -1.85333
 H  2.36985  2.54285  5.23236     0.49608 -2.29330  2.38637
 O  4.26861  3.91266  3.52939    -0.04096 -0.05992 -0.71979
 H  5.75573  4.99392  8.52256     0.44460 -1.37067 -2.35991
 H  6.06538  3.36590  3.54706    -0.36284 -0.06601 -2.21061
 O  4.66827  7.77462  2.17006     0.65248 -0.27320  0.22098
 H  1.60550  6.68544  6.77440    -0.36470 -2.48597 -0.74733
 H  0.62396  7.69032  7.21883     0.05271  2.32393  2.07687
 O  4.75735  7.32944  7.80266     0.51993  0.42434 -0.31031
 H  2.80751  8.10980  4.34689    -4.04250 -1.22498 -2.21376
 H  5.57939  7.57987  2.87163     1.91454  0.72828  1.97019
 O  4.46277  1.90953  6.90792     0.04415  0.50093 -0.09203
 H  1.21903  0.93409  0.67662     3.42286 -2.39106 -3.65663
 H  7.28619  5.37267  0.27824    -1.55646 -2.01688  0.01251
 O  7.35203  4.69090  1.06449     0.67841  0.06706  0.77665
 H  1.18776  1.99941  2.89639    -0.74379  0.18561 -2.55971
 H  0.21726  6.96495  2.86184    -4.50647  0.83257  1.35525
 O  7.95681  5.88689  6.71437     0.35024  0.13305  0.75125
 H  3.85444  1.82020  6.10212    -1.27580  0.61813 -0.16816
 H  8.41916  6.49530  4.31147    -3.46704  1.50678 -1.62306
 O  5.26385  4.04963  0.05767     0.11529 -0.74344  0.02718
 H  6.12701  7.89686  5.03632     1.72661  0.86054 -1.67182
 H  6.34137  2.03892  2.95695    -7.20341  1.67643 -3.02840
 O  4.89051  1.15247  3.36966    -0.19422 -0.10088  0.18838
 H  8.22445  5.17531  4.76362     0.96888  0.83806 -0.02624
 H  8.23210  1.96858  2.93754     0.87481 -1.97937 -0.76963
 O  2.69477  0.06034  0.48968     0.40690 -0.88257 -0.01954
 H  2.51886  2.29222  1.33267     1.01952 -1.10130 -3.59107
 H  5.08207  1.76632  0.78566     2.39883  2.27675  1.11547
 O  5.88758  6.51292  4.15964     0.64330 -0.34374  0.56717
 H  7.18165  8.05059  2.02947     0.46143 -0.80937  3.90436
 H  2.23253  0.46650  6.85175    -1.58419  3.99370  0.64684
 O  1.79916  4.04500  1.94306    -0.30253  0.18969  0.24592
 H  1.27590  2.06890  6.91279     1.05587 -0.37713  0.40074
 H  3.79030  0.92529  3.48150    -0.35899 -0.82317 -2.96230
 O  8.07483  3.30422  5.58204     0.63884  0.55809 -0.16114
 H  3.47629  8.47589  0.99778    -0.40275  0.25290 -2.50130
 H  3.24659  4.88955  5.11261    -0.89076  2.25368 -1.04177
 O  6.87976  2.67350  3.59012    -0.74936  0.22549  0.40616
 H  4.09207  6.71294  5.70482    -2.42530  0.95432 -0.59597
 H  6.44707  5.83645  3.82397    -0.73787 -2.64951 -0.71714
