4

O      7.5579      1.6887      9.5954
H      6.6229      1.9959      9.2003
N      5.3600      1.9073      9.1849
C      4.6219      1.3662      8.5573
4

O      7.6022      1.7143      9.6057
H      6.6496      2.1575      9.2580
N      5.3444      1.9265      9.1805
C      4.6229      1.3709      8.5676
4

O      7.5579      1.6887      9.5954
H      6.6229      1.9959      9.2003
N      5.3600      1.9073      9.1849
C      4.6219      1.3662      8.5573
4

O      7.6022      1.7143      9.6057
H      6.6496      2.1575      9.2580
N      5.3444      1.9265      9.1805
C      4.6229      1.3709      8.5676
