6

O      6.4820      5.5055      3.5536
H      8.2066      4.8468      4.6035
H      9.2344      4.2003      2.6115
H      6.5297      6.2470      4.5177
C      8.1929      4.5237      2.4309
C      7.5926      4.8396      3.7174
6

O      6.5164      5.5277      3.5675
H      8.2657      4.8101      4.6246
H      9.1638      4.1669      2.5397
H      6.5669      6.2575      4.6052
C      8.2024      4.5125      2.4695
C      7.5770      4.8312      3.7015
6

O      6.5527      5.5514      3.5829
H      8.3112      4.7759      4.6434
H      9.1218      4.1438      2.4769
H      6.5980      6.2485      4.6988
C      8.2089      4.5009      2.5065
C      7.5628      4.8236      3.6844
6

O      6.4820      5.5055      3.5536
H      8.2066      4.8468      4.6035
H      9.2344      4.2003      2.6115
H      6.5297      6.2470      4.5177
C      8.1929      4.5237      2.4309
C      7.5926      4.8396      3.7174
6

O      6.5164      5.5277      3.5675
H      8.2657      4.8101      4.6246
H      9.1638      4.1669      2.5397
H      6.5669      6.2575      4.6052
C      8.2024      4.5125      2.4695
C      7.5770      4.8312      3.7015
6

O      6.5527      5.5514      3.5829
H      8.3112      4.7759      4.6434
H      9.1218      4.1438      2.4769
H      6.5980      6.2485      4.6988
C      8.2089      4.5009      2.5065
C      7.5628      4.8236      3.6844
