18

O      5.1017      2.2237      2.7918
O      9.3173     -0.3136      3.3573
H      9.7127      1.4214      6.8011
H      5.8393      3.9051      4.7505
H     10.3688     -0.4821      5.7662
H      8.7495      1.2465      3.4624
H      3.1322      2.3454      3.9184
H      2.9739      3.7288      5.2439
H      7.4668      2.7490      7.2685
N      3.7405      2.9955      4.5900
C      9.4270     -0.5495      5.1106
C      4.9239      2.4513      4.0841
C      8.0967      1.0264      4.5253
C      8.8507      0.4687      5.5618
C      6.1956      2.9395      4.7394
C      7.4888      1.8743      6.5824
C      8.6425      1.1659      6.7603
C      7.2222      2.0846      5.2635
18

O      5.1177      2.2353      2.7933
O      9.3339     -0.3140      3.3673
H      9.7337      1.4449      6.7861
H      5.7866      3.9525      4.7757
H     10.2982     -0.4807      5.7474
H      8.8640      1.2830      3.4763
H      3.0493      2.4039      3.8788
H      2.9953      3.7422      5.2863
H      7.5304      2.7677      7.2490
N      3.7477      3.0019      4.5941
C      9.4209     -0.5522      5.1360
C      4.9261      2.4544      4.1013
C      8.0725      1.0222      4.5304
C      8.8594      0.4734      5.5485
C      6.2135      2.9460      4.7307
C      7.4684      1.8704      6.5679
C      8.6733      1.1733      6.7557
C      7.2100      2.0684      5.2794
18

O      5.3060      2.3771      2.6877
O      9.6367     -0.6920      3.7054
H      9.4828      0.7053      7.1493
H      5.4172      3.8375      5.9377
H     10.0274     -1.1230      5.5923
H      8.0319      1.8308      3.5404
H      3.1387      2.4927      5.0763
H      3.8994      3.7225      4.9065
H      7.3747      2.8558      7.3351
N      3.7877      2.8462      4.6065
C      9.3982     -0.6160      4.9842
C      4.8737      2.3401      3.8527
C      7.7922      1.2810      4.5651
C      8.6188      0.3665      5.5420
C      5.8807      2.8243      5.2511
C      7.7355      2.2374      6.5017
C      8.6747      1.1547      6.6130
C      6.8873      1.9300      5.5617
18

O      5.1017      2.2237      2.7918
O      9.3173     -0.3136      3.3573
H      9.7127      1.4214      6.8011
H      5.8393      3.9051      4.7505
H     10.3688     -0.4821      5.7662
H      8.7495      1.2465      3.4624
H      3.1322      2.3454      3.9184
H      2.9739      3.7288      5.2439
H      7.4668      2.7490      7.2685
N      3.7405      2.9955      4.5900
C      9.4270     -0.5495      5.1106
C      4.9239      2.4513      4.0841
C      8.0967      1.0264      4.5253
C      8.8507      0.4687      5.5618
C      6.1956      2.9395      4.7394
C      7.4888      1.8743      6.5824
C      8.6425      1.1659      6.7603
C      7.2222      2.0846      5.2635
18

O      5.1177      2.2353      2.7933
O      9.3339     -0.3140      3.3673
H      9.7337      1.4449      6.7861
H      5.7866      3.9525      4.7757
H     10.2982     -0.4807      5.7474
H      8.8640      1.2830      3.4763
H      3.0493      2.4039      3.8788
H      2.9953      3.7422      5.2863
H      7.5304      2.7677      7.2490
N      3.7477      3.0019      4.5941
C      9.4209     -0.5522      5.1360
C      4.9261      2.4544      4.1013
C      8.0725      1.0222      4.5304
C      8.8594      0.4734      5.5485
C      6.2135      2.9460      4.7307
C      7.4684      1.8704      6.5679
C      8.6733      1.1733      6.7557
C      7.2100      2.0684      5.2794
18

O      5.3060      2.3771      2.6877
O      9.6367     -0.6920      3.7054
H      9.4828      0.7053      7.1493
H      5.4172      3.8375      5.9377
H     10.0274     -1.1230      5.5923
H      8.0319      1.8308      3.5404
H      3.1387      2.4927      5.0763
H      3.8994      3.7225      4.9065
H      7.3747      2.8558      7.3351
N      3.7877      2.8462      4.6065
C      9.3982     -0.6160      4.9842
C      4.8737      2.3401      3.8527
C      7.7922      1.2810      4.5651
C      8.6188      0.3665      5.5420
C      5.8807      2.8243      5.2511
C      7.7355      2.2374      6.5017
C      8.6747      1.1547      6.6130
C      6.8873      1.9300      5.5617
