19

O      4.7539      1.9733      2.8016
O      9.1257     -0.6785      3.4284
H      8.7925     -0.1465      7.3409
H      6.2550      4.0553      4.8191
H      9.2443     -1.5153      4.9506
H      9.1361      1.6843      4.1136
H      8.8017      0.0755      3.1866
H      2.9399      2.6307      3.5102
H      7.7238      2.8786      7.3453
H      5.0242      3.1089      5.6048
N      3.5152      2.6267      4.3532
C      9.4803     -0.5717      4.6189
C      4.8569      2.6435      3.8162
C      8.0699      1.2452      4.4921
C      8.6596      0.2536      5.3943
C      5.9404      2.7832      4.9790
C      7.9473      2.0956      6.5170
C      8.5401      0.8435      6.6971
C      7.2186      2.2580      5.3595
19

O      4.7576      1.9811      2.7989
O      9.1342     -0.6577      3.4502
H      8.7875     -0.0967      7.4588
H      6.2774      4.0238      4.7533
H      9.2658     -1.5476      4.8858
H      9.1158      1.6646      4.0978
H      8.7426      0.0119      3.1566
H      2.8504      2.6265      3.5167
H      7.6689      2.8364      7.3738
H      5.0397      3.0383      5.5829
N      3.5364      2.6240      4.3575
C      9.4993     -0.5652      4.6105
C      4.8675      2.6605      3.8359
C      8.0707      1.2595      4.4868
C      8.6706      0.2380      5.3906
C      5.9552      2.7660      4.9764
C      7.9106      2.1084      6.5090
C      8.5333      0.8562      6.7373
C      7.2221      2.2601      5.3430
19

O      4.7539      1.9733      2.8016
O      9.1257     -0.6785      3.4284
H      8.7925     -0.1465      7.3409
H      6.2550      4.0553      4.8191
H      9.2443     -1.5153      4.9506
H      9.1361      1.6843      4.1136
H      8.8017      0.0755      3.1866
H      2.9399      2.6307      3.5102
H      7.7238      2.8786      7.3453
H      5.0242      3.1089      5.6048
N      3.5152      2.6267      4.3532
C      9.4803     -0.5717      4.6189
C      4.8569      2.6435      3.8162
C      8.0699      1.2452      4.4921
C      8.6596      0.2536      5.3943
C      5.9404      2.7832      4.9790
C      7.9473      2.0956      6.5170
C      8.5401      0.8435      6.6971
C      7.2186      2.2580      5.3595
19

O      4.7576      1.9811      2.7989
O      9.1342     -0.6577      3.4502
H      8.7875     -0.0967      7.4588
H      6.2774      4.0238      4.7533
H      9.2658     -1.5476      4.8858
H      9.1158      1.6646      4.0978
H      8.7426      0.0119      3.1566
H      2.8504      2.6265      3.5167
H      7.6689      2.8364      7.3738
H      5.0397      3.0383      5.5829
N      3.5364      2.6240      4.3575
C      9.4993     -0.5652      4.6105
C      4.8675      2.6605      3.8359
C      8.0707      1.2595      4.4868
C      8.6706      0.2380      5.3906
C      5.9552      2.7660      4.9764
C      7.9106      2.1084      6.5090
C      8.5333      0.8562      6.7373
C      7.2221      2.2601      5.3430
