6

O      1.2693      1.6564      2.5495
O      0.6504      2.7308      0.5317
H     -1.5024      2.1284      1.9629
H     -0.7310      2.3957      3.3096
C      0.5528      2.5681      1.7965
C     -0.9053      2.9100      2.2310
6

O      1.2756      1.6573      2.5397
O      0.6504      2.7484      0.5344
H     -1.5837      2.1591      1.9409
H     -0.8980      2.2979      3.3715
C      0.5359      2.5713      1.7947
C     -0.9151      2.9320      2.2589
6

O      1.2807      1.6602      2.5291
O      0.6505      2.7665      0.5388
H     -1.6658      2.1842      1.8994
H     -1.0606      2.2225      3.4123
C      0.5176      2.5730      1.7912
C     -0.9202      2.9417      2.2896
6

O      1.2844      1.6649      2.5178
O      0.6502      2.7851      0.5453
H     -1.7356      2.2150      1.8443
H     -1.2054      2.1766      3.4255
C      0.4982      2.5733      1.7858
C     -0.9217      2.9368      2.3223
6

O      1.2865      1.6712      2.5062
O      0.6493      2.8042      0.5537
H     -1.7837      2.2573      1.7819
H     -1.3238      2.1645      3.4092
C      0.4780      2.5720      1.7786
C     -0.9207      2.9176      2.3559
6

O      1.2868      1.6790      2.4943
O      0.6478      2.8240      0.5638
H     -1.8044      2.3125      1.7186
H     -1.4121      2.1864      3.3641
C      0.4573      2.5687      1.7700
C     -0.9181      2.8864      2.3891
6

O      1.2855      1.6883      2.4823
O      0.6457      2.8444      0.5748
H     -1.7951      2.3790      1.6606
H     -1.4679      2.2380      3.2944
C      0.4366      2.5631      1.7609
C     -0.9146      2.8469      2.4196
6

O      1.2826      1.6992      2.4704
O      0.6430      2.8654      0.5858
H     -1.7565      2.4537      1.6127
H     -1.4900      2.3095      3.2099
C      0.4163      2.5548      1.7522
C     -0.9103      2.8031      2.4457
6

O      1.2781      1.7117      2.4585
O      0.6399      2.8873      0.5961
H     -1.6933      2.5325      1.5780
H     -1.4888      2.3835      3.1334
C      0.3966      2.5432      1.7449
C     -0.9044      2.7590      2.4644
6

O      1.2722      1.7256      2.4468
O      0.6365      2.9101      0.6048
H     -1.6129      2.6111      1.5568
H     -1.4928      2.4360      3.1031
C      0.3781      2.5281      1.7399
C     -0.8945      2.7179      2.4727
6

O      1.2652      1.7409      2.4353
O      0.6330      2.9338      0.6116
H     -1.5252      2.6854      1.5462
H     -1.5237      2.4565      3.1423
C      0.3612      2.5093      1.7380
C     -0.8788      2.6821      2.4687
6

O      1.2572      1.7571      2.4240
O      0.6295      2.9586      0.6162
H     -1.4413      2.7524      1.5393
H     -1.5613      2.4555      3.2281
C      0.3466      2.4869      1.7391
C     -0.8589      2.6512      2.4552
6

O      1.2693      1.6564      2.5495
O      0.6504      2.7308      0.5317
H     -1.5024      2.1284      1.9629
H     -0.7310      2.3957      3.3096
C      0.5528      2.5681      1.7965
C     -0.9053      2.9100      2.2310
6

O      1.2756      1.6573      2.5397
O      0.6504      2.7484      0.5344
H     -1.5837      2.1591      1.9409
H     -0.8980      2.2979      3.3715
C      0.5359      2.5713      1.7947
C     -0.9151      2.9320      2.2589
6

O      1.2807      1.6602      2.5291
O      0.6505      2.7665      0.5388
H     -1.6658      2.1842      1.8994
H     -1.0606      2.2225      3.4123
C      0.5176      2.5730      1.7912
C     -0.9202      2.9417      2.2896
6

O      1.2844      1.6649      2.5178
O      0.6502      2.7851      0.5453
H     -1.7356      2.2150      1.8443
H     -1.2054      2.1766      3.4255
C      0.4982      2.5733      1.7858
C     -0.9217      2.9368      2.3223
6

O      1.2865      1.6712      2.5062
O      0.6493      2.8042      0.5537
H     -1.7837      2.2573      1.7819
H     -1.3238      2.1645      3.4092
C      0.4780      2.5720      1.7786
C     -0.9207      2.9176      2.3559
6

O      1.2868      1.6790      2.4943
O      0.6478      2.8240      0.5638
H     -1.8044      2.3125      1.7186
H     -1.4121      2.1864      3.3641
C      0.4573      2.5687      1.7700
C     -0.9181      2.8864      2.3891
6

O      1.2855      1.6883      2.4823
O      0.6457      2.8444      0.5748
H     -1.7951      2.3790      1.6606
H     -1.4679      2.2380      3.2944
C      0.4366      2.5631      1.7609
C     -0.9146      2.8469      2.4196
6

O      1.2826      1.6992      2.4704
O      0.6430      2.8654      0.5858
H     -1.7565      2.4537      1.6127
H     -1.4900      2.3095      3.2099
C      0.4163      2.5548      1.7522
C     -0.9103      2.8031      2.4457
6

O      1.2781      1.7117      2.4585
O      0.6399      2.8873      0.5961
H     -1.6933      2.5325      1.5780
H     -1.4888      2.3835      3.1334
C      0.3966      2.5432      1.7449
C     -0.9044      2.7590      2.4644
6

O      1.2722      1.7256      2.4468
O      0.6365      2.9101      0.6048
H     -1.6129      2.6111      1.5568
H     -1.4928      2.4360      3.1031
C      0.3781      2.5281      1.7399
C     -0.8945      2.7179      2.4727
6

O      1.2652      1.7409      2.4353
O      0.6330      2.9338      0.6116
H     -1.5252      2.6854      1.5462
H     -1.5237      2.4565      3.1423
C      0.3612      2.5093      1.7380
C     -0.8788      2.6821      2.4687
6

O      1.2572      1.7571      2.4240
O      0.6295      2.9586      0.6162
H     -1.4413      2.7524      1.5393
H     -1.5613      2.4555      3.2281
C      0.3466      2.4869      1.7391
C     -0.8589      2.6512      2.4552
