17

O      4.7811      2.2563      2.9817
O      9.6066     -0.2726      3.3973
H      9.1438      0.9631      7.3931
H     10.4952     -0.8208      5.0625
H      4.4184      4.2042      5.3519
H      3.0596      2.9811      5.1306
H      8.0516      3.3706      7.2274
H      4.5749      1.2591      3.4451
N      4.0046      3.0402      5.0089
C      9.3472     -0.5457      4.5580
C      4.9527      2.2517      4.6577
C      7.5477      1.2644      4.4947
C      8.5696      0.5256      5.2473
C      6.1437      2.9294      5.3133
C      8.1676      2.5836      6.5415
C      8.3840      1.0826      6.8255
C      7.4871      2.5381      5.1381
17

O      4.7811      2.2563      2.9817
O      9.6066     -0.2726      3.3973
H      9.1438      0.9631      7.3931
H     10.4952     -0.8208      5.0625
H      4.4184      4.2042      5.3519
H      3.0596      2.9811      5.1306
H      8.0516      3.3706      7.2274
H      4.5749      1.2591      3.4451
N      4.0046      3.0402      5.0089
C      9.3472     -0.5457      4.5580
C      4.9527      2.2517      4.6577
C      7.5477      1.2644      4.4947
C      8.5696      0.5256      5.2473
C      6.1437      2.9294      5.3133
C      8.1676      2.5836      6.5415
C      8.3840      1.0826      6.8255
C      7.4871      2.5381      5.1381
