15

O      5.9401      2.4534     10.4788
O      4.1766      2.8816      9.0353
H      3.8619      1.3518      3.4613
H      3.3711     -0.6742      4.8538
H      4.6806      2.1163      6.0654
H      3.1131      1.9429      5.0070
H      3.3378      2.9990      9.9391
H      3.8746      2.0883      7.4310
N      6.0151      2.3874      7.9086
N      3.7875      1.3112      4.5447
N      5.1807      0.3204      7.2876
C      4.2500     -0.0398      4.9749
C      5.5473      2.6809      9.1235
C      4.8551      1.7008      7.1095
C      5.1115     -0.5432      6.3310
15

O      5.9356      2.4824     10.4764
O      4.1786      2.9065      9.0531
H      3.9033      1.3697      3.4258
H      3.3685     -0.7004      4.9022
H      4.6747      2.0834      6.1203
H      3.1654      1.9095      5.0212
H      3.3614      2.8772      9.8911
H      3.8358      1.9967      7.4969
N      5.9988      2.3731      7.9065
N      3.8298      1.3158      4.5405
N      5.2006      0.3252      7.2861
C      4.2448     -0.0461      4.9737
C      5.5351      2.6912      9.1298
C      4.8708      1.7097      7.1119
C      5.1054     -0.5257      6.2983
15

O      5.9297      2.5117     10.4709
O      4.1784      2.9318      9.0726
H      3.9449      1.3964      3.4182
H      3.3689     -0.7277      4.9621
H      4.6849      2.0505      6.1707
H      3.2129      1.8739      5.0352
H      3.4184      2.7511      9.8216
H      3.8140      1.8995      7.5690
N      5.9812      2.3581      7.9028
N      3.8745      1.3190      4.5352
N      5.2209      0.3316      7.2835
C      4.2409     -0.0515      4.9755
C      5.5218      2.7004      9.1397
C      4.8874      1.7191      7.1155
C      5.0962     -0.5074      6.2642
15

O      5.9226      2.5410     10.4622
O      4.1766      2.9571      9.0930
H      3.9855      1.4285      3.4392
H      3.3726     -0.7519      5.0288
H      4.7043      2.0258      6.1990
H      3.2510      1.8409      5.0512
H      3.5003      2.6247      9.7398
H      3.8166      1.8014      7.6416
N      5.9618      2.3430      7.8984
N      3.9215      1.3204      4.5288
N      5.2415      0.3389      7.2793
C      4.2385     -0.0563      4.9797
C      5.5078      2.7086      9.1526
C      4.9043      1.7280      7.1223
C      5.0842     -0.4881      6.2299
15

O      5.9144      2.5704     10.4505
O      4.1740      2.9827      9.1134
H      4.0242      1.4626      3.4821
H      3.3795     -0.7693      5.0968
H      4.7274      2.0159      6.1919
H      3.2791      1.8124      5.0690
H      3.5884      2.4956      9.6620
H      3.8457      1.7087      7.7094
N      5.9393      2.3283      7.8961
N      3.9702      1.3196      4.5217
N      5.2619      0.3465      7.2730
C      4.2381     -0.0609      4.9862
C      5.4936      2.7156      9.1677
C      4.9208      1.7354      7.1333
C      5.0697     -0.4677      6.1968
15

O      5.9056      2.5996     10.4361
O      4.1714      3.0088      9.1331
H      4.0604      1.4963      3.5322
H      3.3888     -0.7773      5.1604
H      4.7528      2.0207      6.1554
H      3.3010      1.7874      5.0850
H      3.6650      2.3548      9.6008
H      3.8980      1.6296      7.7681
N      5.9122      2.3146      7.8981
N      4.0198      1.3168      4.5152
N      5.2817      0.3536      7.2641
C      4.2401     -0.0656      4.9941
C      5.4796      2.7214      9.1841
C      4.9360      1.7407      7.1477
C      5.0532     -0.4455      6.1656
15

O      5.8962      2.6288     10.4192
O      4.1681      3.0350      9.1525
H      4.0940      1.5295      3.5687
H      3.3988     -0.7753      5.2150
H      4.7819      2.0354      6.1095
H      3.3223      1.7642      5.0948
H      3.7294      2.2063      9.5510
H      3.9654      1.5723      7.8148
N      5.8824      2.3034      7.9054
N      4.0694      1.3119      4.5111
N      5.3004      0.3588      7.2523
C      4.2444     -0.0705      5.0027
C      5.4661      2.7261      9.2009
C      4.9486      1.7434      7.1630
C      5.0356     -0.4217      6.1377
15

O      5.8867      2.6577     10.4004
O      4.1629      3.0599      9.1725
H      4.1243      1.5625      3.5752
H      3.4064     -0.7643      5.2570
H      4.8160      2.0561      6.0748
H      3.3480      1.7421      5.0952
H      3.7897      2.0709      9.5003
H      4.0376      1.5417      7.8475
N      5.8542      2.2967      7.9186
N      4.1179      1.3048      4.5107
N      5.3177      0.3612      7.2371
C      4.2509     -0.0756      5.0106
C      5.4530      2.7300      9.2172
C      4.9571      1.7432      7.1765
C      5.0181     -0.3964      6.1146
15

O      5.8776      2.6863     10.3805
O      4.1552      3.0823      9.1934
H      4.1503      1.5929      3.5523
H      3.4085     -0.7468      5.2845
H      4.8550      2.0802      6.0635
H      3.3806      1.7220      5.0860
H      3.8496      1.9675      9.4428
H      4.0999      1.5387      7.8660
N      5.8313      2.2964      7.9385
N      4.1647      1.2958      4.5141
N      5.3329      0.3605      7.2182
C      4.2588     -0.0805      5.0165
C      5.4401      2.7332      9.2321
C      4.9607      1.7398      7.1862
C      5.0024     -0.3703      6.0980
15

O      5.8695      2.7145     10.3609
O      4.1447      3.1014      9.2149
H      4.1710      1.6142      3.5156
H      3.4030     -0.7257      5.2962
H      4.8970      2.1061      6.0805
H      3.4199      1.7064      5.0692
H      3.9096      1.9030      9.3778
H      4.1387      1.5609      7.8719
N      5.8153      2.3026      7.9655
N      4.2091      1.2853      4.5200
N      5.3459      0.3567      7.1957
C      4.2674     -0.0850      5.0191
C      5.4265      2.7361      9.2444
C      4.9594      1.7333      7.1911
C      4.9897     -0.3440      6.0891
15

O      5.8634      2.7420     10.3431
O      4.1313      3.1170      9.2365
H      4.1863      1.6199      3.4834
H      3.3900     -0.7026      5.2919
H      4.9393      2.1326      6.1242
H      3.4634      1.6986      5.0493
H      3.9691      1.8779      9.3072
H      4.1430      1.6031      7.8670
N      5.8062      2.3143      7.9991
N      4.2511      1.2739      4.5267
N      5.3564      0.3513      7.1704
C      4.2757     -0.0889      5.0172
C      5.4109      2.7392      9.2529
C      4.9544      1.7242      7.1915
C      4.9808     -0.3186      6.0885
15

O      5.8602      2.7687     10.3283
O      4.1150      3.1291      9.2580
H      4.1973      1.6058      3.4675
H      3.3711     -0.6772      5.2709
H      4.9789      2.1592      6.1868
H      3.5080      1.7020      5.0307
H      4.0258      1.8935      9.2347
H      4.1090      1.6595      7.8516
N      5.8030      2.3296      8.0375
N      4.2906      1.2620      4.5332
N      5.3642      0.3461      7.1435
C      4.2831     -0.0924      5.0104
C      5.3923      2.7426      9.2570
C      4.9472      1.7135      7.1887
C      4.9761     -0.2952      6.0959
15

O      5.8607      2.7945     10.3172
O      4.0956      3.1375      9.2789
H      4.2050      1.5714      3.4729
H      3.3495     -0.6482      5.2328
H      5.0126      2.1871      6.2527
H      3.5513      1.7188      5.0171
H      4.0743      1.9496      9.1648
H      4.0430      1.7248      7.8223
N      5.8040      2.3464      8.0786
N      4.3279      1.2501      4.5389
N      5.3691      0.3431      7.1169
C      4.2895     -0.0957      4.9988
C      5.3706      2.7467      9.2567
C      4.9393      1.7022      7.1849
C      4.9755     -0.2753      6.1094
15

O      5.8652      2.8194     10.3099
O      4.0733      3.1423      9.2988
H      4.2107      1.5186      3.4988
H      3.3283     -0.6136      5.1782
H      5.0386      2.2191      6.3028
H      3.5938      1.7491      5.0100
H      4.1060      2.0445      9.1023
H      3.9603      1.7932      7.7743
N      5.8079      2.3627      8.1200
N      4.3629      1.2386      4.5436
N      5.3715      0.3444      7.0930
C      4.2951     -0.0993      4.9832
C      5.3463      2.7517      9.2532
C      4.9318      1.6915      7.1827
C      4.9778     -0.2607      6.1262
15

O      5.8733      2.8434     10.3061
O      4.0482      3.1440      9.3176
H      4.2147      1.4515      3.5387
H      3.3095     -0.5724      5.1089
H      5.0575      2.2580      6.3260
H      3.6386      1.7905      5.0088
H      4.1086      2.1700      9.0503
H      3.8777      1.8607      7.7069
N      5.8135      2.3772      8.1589
N      4.3956      1.2277      4.5475
N      5.3721      0.3519      7.0740
C      4.3003     -0.1034      4.9646
C      5.3201      2.7585      9.2488
C      4.9249      1.6824      7.1838
C      4.9812     -0.2530      6.1428
15

O      5.8846      2.8666     10.3051
O      4.0208      3.1437      9.3354
H      4.2155      1.3761      3.5807
H      3.2927     -0.5252      5.0283
H      5.0709      2.3007      6.3245
H      3.6898      1.8381      5.0115
H      4.0685      2.2974      9.0027
H      3.8109      1.9249      7.6241
N      5.8201      2.3892      8.1930
N      4.4258      1.2177      4.5512
N      5.3721      0.3666      7.0619
C      4.3056     -0.1082      4.9444
C      5.2928      2.7681      9.2466
C      4.9188      1.6765      7.1883
C      4.9838     -0.2536      6.1558
15

O      5.8982      2.8893     10.3060
O      3.9916      3.1440      9.3532
H      4.2104      1.2994      3.6091
H      3.2768     -0.4737      4.9400
H      5.0800      2.3405      6.3092
H      3.7506      1.8863      5.0160
H      3.9788      2.3816      8.9390
H      3.7676      1.9827      7.5309
N      5.8273      2.3981      8.2209
N      4.4536      1.2092      4.5553
N      5.3722      0.3889      7.0576
C      4.3117     -0.1137      4.9237
C      5.2652      2.7811      9.2491
C      4.9136      1.6754      7.1956
C      4.9843     -0.2630      6.1634
15

O      5.9132      2.9115     10.3080
O      3.9616      3.1461      9.3719
H      4.1973      1.2272      3.6141
H      3.2612     -0.4200      4.8482
H      5.0861      2.3702      6.2913
H      3.8210      1.9279      5.0214
H      3.8434      2.4047      8.8408
H      3.7492      2.0314      7.4317
N      5.8346      2.4040      8.2422
N      4.4789      1.2024      4.5604
N      5.3727      0.4176      7.0603
C      4.3192     -0.1199      4.9033
C      5.2374      2.7971      9.2582
C      4.9096      1.6802      7.2044
C      4.9819     -0.2800      6.1654
15

O      5.9289      2.9336     10.3103
O      3.9315      3.1477      9.3907
H      4.1778      1.1642      3.5988
H      3.2471     -0.3669      4.7566
H      5.0902      2.3857      6.2774
H      3.8987      1.9573      5.0276
H      3.6786      2.4041      8.7242
H      3.7521      2.0689      7.3301
N      5.8411      2.4071      8.2576
N      4.5018      1.1981      4.5657
N      5.3732      0.4503      7.0683
C      4.3280     -0.1269      4.8842
C      5.2089      2.8157      9.2740
C      4.9067      1.6919      7.2138
C      4.9767     -0.3023      6.1630
15

O      5.9444      2.9554     10.3125
O      3.9009      3.1466      9.4077
H      4.1572      1.1152      3.5776
H      3.2368     -0.3181      4.6698
H      5.0938      2.3851      6.2708
H      3.9790      1.9728      5.0352
H      3.5039      2.4177      8.6195
H      3.7701      2.0944      7.2298
N      5.8459      2.4076      8.2679
N      4.5225      1.1964      4.5700
N      5.3731      0.4841      7.0790
C      4.3380     -0.1344      4.8672
C      5.1803      2.8363      9.2955
C      4.9053      1.7111      7.2231
C      4.9688     -0.3264      6.1580
15

O      5.9588      2.9773     10.3141
O      3.8695      3.1422      9.4223
H      4.1418      1.0852      3.5656
H      3.2328     -0.2778      4.5925
H      5.0994      2.3698      6.2720
H      4.0561      1.9760      5.0463
H      3.3316      2.4567      8.5414
H      3.7958      2.1075      7.1346
N      5.8479      2.4063      8.2747
N      4.5412      1.1972      4.5718
N      5.3720      0.5157      7.0898
C      4.3487     -0.1422      4.8526
C      5.1527      2.8580      9.3211
C      4.9057      1.7378      7.2320
C      4.9586     -0.3487      6.1522
15

O      5.9714      2.9991     10.3149
O      3.8376      3.1346      9.4342
H      4.1345      1.0778      3.5724
H      3.2376     -0.2491      4.5296
H      5.1097      2.3442      6.2791
H      4.1238      1.9707      5.0641
H      3.1722      2.5207      8.4950
H      3.8220      2.1086      7.0483
N      5.8461      2.4039      8.2792
N      4.5586      1.2003      4.5704
N      5.3693      0.5427      7.0989
C      4.3597     -0.1497      4.8404
C      5.1273      2.8800      9.3491
C      4.9081      1.7717      7.2402
C      4.9462     -0.3662      6.1467
15

O      5.9401      2.4534     10.4788
O      4.1766      2.8816      9.0353
H      3.8619      1.3518      3.4613
H      3.3711     -0.6742      4.8538
H      4.6806      2.1163      6.0654
H      3.1131      1.9429      5.0070
H      3.3378      2.9990      9.9391
H      3.8746      2.0883      7.4310
N      6.0151      2.3874      7.9086
N      3.7875      1.3112      4.5447
N      5.1807      0.3204      7.2876
C      4.2500     -0.0398      4.9749
C      5.5473      2.6809      9.1235
C      4.8551      1.7008      7.1095
C      5.1115     -0.5432      6.3310
15

O      5.9356      2.4824     10.4764
O      4.1786      2.9065      9.0531
H      3.9033      1.3697      3.4258
H      3.3685     -0.7004      4.9022
H      4.6747      2.0834      6.1203
H      3.1654      1.9095      5.0212
H      3.3614      2.8772      9.8911
H      3.8358      1.9967      7.4969
N      5.9988      2.3731      7.9065
N      3.8298      1.3158      4.5405
N      5.2006      0.3252      7.2861
C      4.2448     -0.0461      4.9737
C      5.5351      2.6912      9.1298
C      4.8708      1.7097      7.1119
C      5.1054     -0.5257      6.2983
15

O      5.9297      2.5117     10.4709
O      4.1784      2.9318      9.0726
H      3.9449      1.3964      3.4182
H      3.3689     -0.7277      4.9621
H      4.6849      2.0505      6.1707
H      3.2129      1.8739      5.0352
H      3.4184      2.7511      9.8216
H      3.8140      1.8995      7.5690
N      5.9812      2.3581      7.9028
N      3.8745      1.3190      4.5352
N      5.2209      0.3316      7.2835
C      4.2409     -0.0515      4.9755
C      5.5218      2.7004      9.1397
C      4.8874      1.7191      7.1155
C      5.0962     -0.5074      6.2642
15

O      5.9226      2.5410     10.4622
O      4.1766      2.9571      9.0930
H      3.9855      1.4285      3.4392
H      3.3726     -0.7519      5.0288
H      4.7043      2.0258      6.1990
H      3.2510      1.8409      5.0512
H      3.5003      2.6247      9.7398
H      3.8166      1.8014      7.6416
N      5.9618      2.3430      7.8984
N      3.9215      1.3204      4.5288
N      5.2415      0.3389      7.2793
C      4.2385     -0.0563      4.9797
C      5.5078      2.7086      9.1526
C      4.9043      1.7280      7.1223
C      5.0842     -0.4881      6.2299
15

O      5.9144      2.5704     10.4505
O      4.1740      2.9827      9.1134
H      4.0242      1.4626      3.4821
H      3.3795     -0.7693      5.0968
H      4.7274      2.0159      6.1919
H      3.2791      1.8124      5.0690
H      3.5884      2.4956      9.6620
H      3.8457      1.7087      7.7094
N      5.9393      2.3283      7.8961
N      3.9702      1.3196      4.5217
N      5.2619      0.3465      7.2730
C      4.2381     -0.0609      4.9862
C      5.4936      2.7156      9.1677
C      4.9208      1.7354      7.1333
C      5.0697     -0.4677      6.1968
15

O      5.9056      2.5996     10.4361
O      4.1714      3.0088      9.1331
H      4.0604      1.4963      3.5322
H      3.3888     -0.7773      5.1604
H      4.7528      2.0207      6.1554
H      3.3010      1.7874      5.0850
H      3.6650      2.3548      9.6008
H      3.8980      1.6296      7.7681
N      5.9122      2.3146      7.8981
N      4.0198      1.3168      4.5152
N      5.2817      0.3536      7.2641
C      4.2401     -0.0656      4.9941
C      5.4796      2.7214      9.1841
C      4.9360      1.7407      7.1477
C      5.0532     -0.4455      6.1656
15

O      5.8962      2.6288     10.4192
O      4.1681      3.0350      9.1525
H      4.0940      1.5295      3.5687
H      3.3988     -0.7753      5.2150
H      4.7819      2.0354      6.1095
H      3.3223      1.7642      5.0948
H      3.7294      2.2063      9.5510
H      3.9654      1.5723      7.8148
N      5.8824      2.3034      7.9054
N      4.0694      1.3119      4.5111
N      5.3004      0.3588      7.2523
C      4.2444     -0.0705      5.0027
C      5.4661      2.7261      9.2009
C      4.9486      1.7434      7.1630
C      5.0356     -0.4217      6.1377
15

O      5.8867      2.6577     10.4004
O      4.1629      3.0599      9.1725
H      4.1243      1.5625      3.5752
H      3.4064     -0.7643      5.2570
H      4.8160      2.0561      6.0748
H      3.3480      1.7421      5.0952
H      3.7897      2.0709      9.5003
H      4.0376      1.5417      7.8475
N      5.8542      2.2967      7.9186
N      4.1179      1.3048      4.5107
N      5.3177      0.3612      7.2371
C      4.2509     -0.0756      5.0106
C      5.4530      2.7300      9.2172
C      4.9571      1.7432      7.1765
C      5.0181     -0.3964      6.1146
15

O      5.8776      2.6863     10.3805
O      4.1552      3.0823      9.1934
H      4.1503      1.5929      3.5523
H      3.4085     -0.7468      5.2845
H      4.8550      2.0802      6.0635
H      3.3806      1.7220      5.0860
H      3.8496      1.9675      9.4428
H      4.0999      1.5387      7.8660
N      5.8313      2.2964      7.9385
N      4.1647      1.2958      4.5141
N      5.3329      0.3605      7.2182
C      4.2588     -0.0805      5.0165
C      5.4401      2.7332      9.2321
C      4.9607      1.7398      7.1862
C      5.0024     -0.3703      6.0980
15

O      5.8695      2.7145     10.3609
O      4.1447      3.1014      9.2149
H      4.1710      1.6142      3.5156
H      3.4030     -0.7257      5.2962
H      4.8970      2.1061      6.0805
H      3.4199      1.7064      5.0692
H      3.9096      1.9030      9.3778
H      4.1387      1.5609      7.8719
N      5.8153      2.3026      7.9655
N      4.2091      1.2853      4.5200
N      5.3459      0.3567      7.1957
C      4.2674     -0.0850      5.0191
C      5.4265      2.7361      9.2444
C      4.9594      1.7333      7.1911
C      4.9897     -0.3440      6.0891
15

O      5.8634      2.7420     10.3431
O      4.1313      3.1170      9.2365
H      4.1863      1.6199      3.4834
H      3.3900     -0.7026      5.2919
H      4.9393      2.1326      6.1242
H      3.4634      1.6986      5.0493
H      3.9691      1.8779      9.3072
H      4.1430      1.6031      7.8670
N      5.8062      2.3143      7.9991
N      4.2511      1.2739      4.5267
N      5.3564      0.3513      7.1704
C      4.2757     -0.0889      5.0172
C      5.4109      2.7392      9.2529
C      4.9544      1.7242      7.1915
C      4.9808     -0.3186      6.0885
15

O      5.8602      2.7687     10.3283
O      4.1150      3.1291      9.2580
H      4.1973      1.6058      3.4675
H      3.3711     -0.6772      5.2709
H      4.9789      2.1592      6.1868
H      3.5080      1.7020      5.0307
H      4.0258      1.8935      9.2347
H      4.1090      1.6595      7.8516
N      5.8030      2.3296      8.0375
N      4.2906      1.2620      4.5332
N      5.3642      0.3461      7.1435
C      4.2831     -0.0924      5.0104
C      5.3923      2.7426      9.2570
C      4.9472      1.7135      7.1887
C      4.9761     -0.2952      6.0959
15

O      5.8607      2.7945     10.3172
O      4.0956      3.1375      9.2789
H      4.2050      1.5714      3.4729
H      3.3495     -0.6482      5.2328
H      5.0126      2.1871      6.2527
H      3.5513      1.7188      5.0171
H      4.0743      1.9496      9.1648
H      4.0430      1.7248      7.8223
N      5.8040      2.3464      8.0786
N      4.3279      1.2501      4.5389
N      5.3691      0.3431      7.1169
C      4.2895     -0.0957      4.9988
C      5.3706      2.7467      9.2567
C      4.9393      1.7022      7.1849
C      4.9755     -0.2753      6.1094
15

O      5.8652      2.8194     10.3099
O      4.0733      3.1423      9.2988
H      4.2107      1.5186      3.4988
H      3.3283     -0.6136      5.1782
H      5.0386      2.2191      6.3028
H      3.5938      1.7491      5.0100
H      4.1060      2.0445      9.1023
H      3.9603      1.7932      7.7743
N      5.8079      2.3627      8.1200
N      4.3629      1.2386      4.5436
N      5.3715      0.3444      7.0930
C      4.2951     -0.0993      4.9832
C      5.3463      2.7517      9.2532
C      4.9318      1.6915      7.1827
C      4.9778     -0.2607      6.1262
15

O      5.8733      2.8434     10.3061
O      4.0482      3.1440      9.3176
H      4.2147      1.4515      3.5387
H      3.3095     -0.5724      5.1089
H      5.0575      2.2580      6.3260
H      3.6386      1.7905      5.0088
H      4.1086      2.1700      9.0503
H      3.8777      1.8607      7.7069
N      5.8135      2.3772      8.1589
N      4.3956      1.2277      4.5475
N      5.3721      0.3519      7.0740
C      4.3003     -0.1034      4.9646
C      5.3201      2.7585      9.2488
C      4.9249      1.6824      7.1838
C      4.9812     -0.2530      6.1428
15

O      5.8846      2.8666     10.3051
O      4.0208      3.1437      9.3354
H      4.2155      1.3761      3.5807
H      3.2927     -0.5252      5.0283
H      5.0709      2.3007      6.3245
H      3.6898      1.8381      5.0115
H      4.0685      2.2974      9.0027
H      3.8109      1.9249      7.6241
N      5.8201      2.3892      8.1930
N      4.4258      1.2177      4.5512
N      5.3721      0.3666      7.0619
C      4.3056     -0.1082      4.9444
C      5.2928      2.7681      9.2466
C      4.9188      1.6765      7.1883
C      4.9838     -0.2536      6.1558
15

O      5.8982      2.8893     10.3060
O      3.9916      3.1440      9.3532
H      4.2104      1.2994      3.6091
H      3.2768     -0.4737      4.9400
H      5.0800      2.3405      6.3092
H      3.7506      1.8863      5.0160
H      3.9788      2.3816      8.9390
H      3.7676      1.9827      7.5309
N      5.8273      2.3981      8.2209
N      4.4536      1.2092      4.5553
N      5.3722      0.3889      7.0576
C      4.3117     -0.1137      4.9237
C      5.2652      2.7811      9.2491
C      4.9136      1.6754      7.1956
C      4.9843     -0.2630      6.1634
15

O      5.9132      2.9115     10.3080
O      3.9616      3.1461      9.3719
H      4.1973      1.2272      3.6141
H      3.2612     -0.4200      4.8482
H      5.0861      2.3702      6.2913
H      3.8210      1.9279      5.0214
H      3.8434      2.4047      8.8408
H      3.7492      2.0314      7.4317
N      5.8346      2.4040      8.2422
N      4.4789      1.2024      4.5604
N      5.3727      0.4176      7.0603
C      4.3192     -0.1199      4.9033
C      5.2374      2.7971      9.2582
C      4.9096      1.6802      7.2044
C      4.9819     -0.2800      6.1654
15

O      5.9289      2.9336     10.3103
O      3.9315      3.1477      9.3907
H      4.1778      1.1642      3.5988
H      3.2471     -0.3669      4.7566
H      5.0902      2.3857      6.2774
H      3.8987      1.9573      5.0276
H      3.6786      2.4041      8.7242
H      3.7521      2.0689      7.3301
N      5.8411      2.4071      8.2576
N      4.5018      1.1981      4.5657
N      5.3732      0.4503      7.0683
C      4.3280     -0.1269      4.8842
C      5.2089      2.8157      9.2740
C      4.9067      1.6919      7.2138
C      4.9767     -0.3023      6.1630
15

O      5.9444      2.9554     10.3125
O      3.9009      3.1466      9.4077
H      4.1572      1.1152      3.5776
H      3.2368     -0.3181      4.6698
H      5.0938      2.3851      6.2708
H      3.9790      1.9728      5.0352
H      3.5039      2.4177      8.6195
H      3.7701      2.0944      7.2298
N      5.8459      2.4076      8.2679
N      4.5225      1.1964      4.5700
N      5.3731      0.4841      7.0790
C      4.3380     -0.1344      4.8672
C      5.1803      2.8363      9.2955
C      4.9053      1.7111      7.2231
C      4.9688     -0.3264      6.1580
15

O      5.9588      2.9773     10.3141
O      3.8695      3.1422      9.4223
H      4.1418      1.0852      3.5656
H      3.2328     -0.2778      4.5925
H      5.0994      2.3698      6.2720
H      4.0561      1.9760      5.0463
H      3.3316      2.4567      8.5414
H      3.7958      2.1075      7.1346
N      5.8479      2.4063      8.2747
N      4.5412      1.1972      4.5718
N      5.3720      0.5157      7.0898
C      4.3487     -0.1422      4.8526
C      5.1527      2.8580      9.3211
C      4.9057      1.7378      7.2320
C      4.9586     -0.3487      6.1522
15

O      5.9714      2.9991     10.3149
O      3.8376      3.1346      9.4342
H      4.1345      1.0778      3.5724
H      3.2376     -0.2491      4.5296
H      5.1097      2.3442      6.2791
H      4.1238      1.9707      5.0641
H      3.1722      2.5207      8.4950
H      3.8220      2.1086      7.0483
N      5.8461      2.4039      8.2792
N      4.5586      1.2003      4.5704
N      5.3693      0.5427      7.0989
C      4.3597     -0.1497      4.8404
C      5.1273      2.8800      9.3491
C      4.9081      1.7717      7.2402
C      4.9462     -0.3662      6.1467
