7

O      2.6806      4.1375     -0.4605
O      3.4471      6.3534     -0.1229
H      3.3635      3.1985     -0.6660
H      4.7030      7.0592      2.0334
N      4.8092      5.7926      2.0518
C      4.4740      4.9393      1.1595
C      3.5749      5.0010     -0.0574
7

O      2.6892      4.1481     -0.4282
O      3.4495      6.3466     -0.1182
H      3.3325      3.1648     -0.7585
H      4.7477      7.0263      1.9742
N      4.8213      5.7961      2.0445
C      4.4664      4.9209      1.1522
C      3.5756      5.0056     -0.0926
7

O      2.6994      4.1593     -0.3962
O      3.4514      6.3387     -0.1128
H      3.3106      3.1151     -0.8651
H      4.8064      6.9408      1.9164
N      4.8316      5.8009      2.0335
C      4.4606      4.9037      1.1470
C      3.5754      5.0135     -0.1265
7

O      2.6806      4.1375     -0.4605
O      3.4471      6.3534     -0.1229
H      3.3635      3.1985     -0.6660
H      4.7030      7.0592      2.0334
N      4.8092      5.7926      2.0518
C      4.4740      4.9393      1.1595
C      3.5749      5.0010     -0.0574
7

O      2.6892      4.1481     -0.4282
O      3.4495      6.3466     -0.1182
H      3.3325      3.1648     -0.7585
H      4.7477      7.0263      1.9742
N      4.8213      5.7961      2.0445
C      4.4664      4.9209      1.1522
C      3.5756      5.0056     -0.0926
7

O      2.6994      4.1593     -0.3962
O      3.4514      6.3387     -0.1128
H      3.3106      3.1151     -0.8651
H      4.8064      6.9408      1.9164
N      4.8316      5.8009      2.0335
C      4.4606      4.9037      1.1470
C      3.5754      5.0135     -0.1265
