6

O      6.4264      8.4219      5.0160
O      5.1059      7.5739      2.9743
H      6.9866      8.0514      3.0727
H      5.9122      9.3606      3.5322
H      4.2414      7.9864      2.7982
C      6.0577      8.2615      3.6587
6

O      6.4019      8.4044      5.0187
O      5.1270      7.5433      2.9579
H      7.0301      8.0255      3.1605
H      5.9569      9.3402      3.5307
H      4.2758      8.0805      2.7857
C      6.0791      8.2507      3.6653
6

O      6.3771      8.3827      5.0212
O      5.1462      7.5113      2.9425
H      7.0771      7.9975      3.2522
H      6.0021      9.3190      3.5239
H      4.3300      8.1634      2.7747
C      6.1022      8.2422      3.6724
6

O      6.3523      8.3567      5.0236
O      5.1631      7.4792      2.9282
H      7.1293      7.9670      3.3404
H      6.0466      9.3010      3.5103
H      4.4101      8.2256      2.7645
C      6.1267      8.2352      3.6799
6

O      6.3276      8.3269      5.0264
O      5.1781      7.4476      2.9153
H      7.1856      7.9336      3.4191
H      6.0902      9.2885      3.4890
H      4.5132      8.2629      2.7536
C      6.1522      8.2290      3.6872
6

O      6.3031      8.2936      5.0293
O      5.1917      7.4171      2.9040
H      7.2409      7.8976      3.4837
H      6.1329      9.2814      3.4607
H      4.6305      8.2759      2.7405
C      6.1785      8.2228      3.6941
6

O      6.2789      8.2577      5.0326
O      5.2043      7.3880      2.8945
H      7.2897      7.8599      3.5317
H      6.1750      9.2773      3.4274
H      4.7504      8.2703      2.7235
C      6.2058      8.2160      3.7001
6

O      6.2546      8.2201      5.0361
O      5.2161      7.3603      2.8871
H      7.3270      7.8221      3.5623
H      6.2163      9.2723      3.3921
H      4.8637      8.2560      2.7017
C      6.2339      8.2083      3.7047
6

O      6.2298      8.1821      5.0398
O      5.2273      7.3335      2.8821
H      7.3498      7.7857      3.5757
H      6.2562      9.2630      3.3584
H      4.9643      8.2441      2.6735
C      6.2629      8.1994      3.7077
6

O      6.2034      8.1447      5.0433
O      5.2375      7.3078      2.8794
H      7.3577      7.7521      3.5739
H      6.2944      9.2469      3.3293
H      5.0491      8.2410      2.6375
C      6.2924      8.1892      3.7091
6

O      6.1748      8.1090      5.0464
O      5.2467      7.2836      2.8790
H      7.3535      7.7230      3.5605
H      6.3305      9.2236      3.3069
H      5.1190      8.2443      2.5947
C      6.3218      8.1776      3.7086
6

O      6.1448      8.0755      5.0490
O      5.2547      7.2618      2.8807
H      7.3418      7.6992      3.5388
H      6.3648      9.1944      3.2927
H      5.1761      8.2457      2.5484
C      6.3503      8.1644      3.7064
6

O      6.1151      8.0444      5.0507
O      5.2616      7.2432      2.8842
H      7.3286      7.6797      3.5111
H      6.3972      9.1622      3.2866
H      5.2220      8.2364      2.5030
C      6.3769      8.1493      3.7027
6

O      6.0870      8.0160      5.0514
O      5.2676      7.2281      2.8894
H      7.3215      7.6626      3.4794
H      6.4273      9.1316      3.2876
H      5.2577      8.2117      2.4613
C      6.4005      8.1322      3.6977
6

O      6.0616      7.9902      5.0511
O      5.2729      7.2165      2.8960
H      7.3268      7.6456      3.4456
H      6.4543      9.1074      3.2937
H      5.2842      8.1714      2.4235
C      6.4203      8.1130      3.6921
6

O      6.0391      7.9671      5.0495
O      5.2781      7.2080      2.9040
H      7.3470      7.6284      3.4122
H      6.4772      9.0927      3.3029
H      5.3015      8.1194      2.3877
C      6.4356      8.0916      3.6862
6

O      6.0199      7.9469      5.0466
O      5.2833      7.2022      2.9133
H      7.3793      7.6129      3.3827
H      6.4947      9.0876      3.3141
H      5.3094      8.0611      2.3509
C      6.4464      8.0682      3.6801
6

O      6.0040      7.9296      5.0421
O      5.2890      7.1986      2.9238
H      7.4173      7.6022      3.3609
H      6.5060      9.0888      3.3270
H      5.3074      8.0021      2.3094
C      6.4527      8.0429      3.6740
6

O      5.9911      7.9153      5.0360
O      5.2953      7.1969      2.9353
H      7.4545      7.5990      3.3498
H      6.5106      9.0909      3.3419
H      5.2949      7.9455      2.2604
C      6.4549      8.0162      3.6676
6

O      5.9411      7.9873      4.9418
O      5.3407      7.1808      2.9973
H      7.3528      7.4459      3.6205
H      6.5202      8.9297      3.0094
H      5.2538      7.3285      2.0574
C      6.3079      7.8844      3.6568
6

O      5.9491      8.0088      4.9493
O      5.3275      7.1677      2.9869
H      7.3393      7.4151      3.5794
H      6.5616      8.9015      2.9985
H      5.3119      7.3538      2.0513
C      6.3098      7.9097      3.6597
6

O      5.9587      8.0321      4.9569
O      5.3142      7.1550      2.9763
H      7.3262      7.3976      3.5395
H      6.6005      8.8693      2.9983
H      5.3721      7.3832      2.0357
C      6.3121      7.9352      3.6609
6

O      5.9697      8.0567      4.9646
O      5.3008      7.1432      2.9650
H      7.3110      7.3955      3.5064
H      6.6334      8.8392      3.0066
H      5.4327      7.4127      2.0170
C      6.3148      7.9597      3.6603
6

O      5.9820      8.0821      4.9722
O      5.2878      7.1330      2.9525
H      7.2925      7.4085      3.4847
H      6.6576      8.8183      3.0195
H      5.4908      7.4371      2.0041
C      6.3179      7.9824      3.6581
6

O      5.9952      8.1079      4.9793
O      5.2755      7.1247      2.9384
H      7.2707      7.4335      3.4766
H      6.6716      8.8138      3.0322
H      5.5431      7.4515      2.0030
C      6.3214      8.0023      3.6549
6

O      6.0090      8.1339      4.9855
O      5.2643      7.1187      2.9227
H      7.2484      7.4649      3.4814
H      6.6750      8.8305      3.0409
H      5.5871      7.4535      2.0148
C      6.3247      8.0188      3.6514
6

O      6.0230      8.1594      4.9901
O      5.2545      7.1154      2.9056
H      7.2307      7.4960      3.4965
H      6.6668      8.8685      3.0445
H      5.6216      7.4429      2.0354
C      6.3274      8.0322      3.6480
6

O      6.0365      8.1832      4.9927
O      5.2462      7.1145      2.8878
H      7.2236      7.5200      3.5179
H      6.6455      8.9224      3.0457
H      5.6479      7.4220      2.0565
C      6.3289      8.0432      3.6450
6

O      6.0487      8.2011      4.9932
O      5.2393      7.1160      2.8700
H      7.2311      7.5329      3.5416
H      6.6102      8.9829      3.0489
H      5.6699      7.3946      2.0673
C      6.3287      8.0523      3.6422
6

O      6.0586      8.2078      4.9914
O      5.2338      7.1196      2.8531
H      7.2514      7.5349      3.5642
H      6.5610      9.0405      3.0578
H      5.6917      7.3643      2.0587
C      6.3267      8.0604      3.6393
6

O      6.0663      8.2052      4.9873
O      5.2296      7.1252      2.8374
H      7.2771      7.5294      3.5824
H      6.5001      9.0876      3.0739
H      5.7151      7.3321      2.0290
C      6.3233      8.0677      3.6362
6

O      6.0728      8.1982      4.9813
O      5.2270      7.1328      2.8225
H      7.2979      7.5202      3.5929
H      6.4304      9.1195      3.0966
H      5.7371      7.2972      1.9856
C      6.3190      8.0742      3.6327
6

O      6.0786      8.1889      4.9739
O      5.2261      7.1421      2.8079
H      7.3058      7.5111      3.5930
H      6.3557      9.1345      3.1240
H      5.7530      7.2595      1.9407
C      6.3142      8.0799      3.6289
6

O      6.0837      8.1777      4.9655
O      5.2270      7.1532      2.7931
H      7.2973      7.5057      3.5815
H      6.2797      9.1329      3.1535
H      5.7595      7.2204      1.9050
C      6.3091      8.0848      3.6252
6

O      6.0882      8.1651      4.9565
O      5.2298      7.1656      2.7778
H      7.2724      7.5065      3.5580
H      6.2054      9.1176      3.1821
H      5.7561      7.1828      1.8855
C      6.3037      8.0888      3.6218
6

O      6.0922      8.1515      4.9471
O      5.2340      7.1791      2.7618
H      7.2347      7.5144      3.5236
H      6.1352      9.0938      3.2067
H      5.7448      7.1497      1.8838
C      6.2980      8.0919      3.6186
6

O      6.0956      8.1371      4.9378
O      5.2394      7.1933      2.7453
H      7.1923      7.5296      3.4803
H      6.0703      9.0686      3.2244
H      5.7302      7.1234      1.8958
C      6.2917      8.0942      3.6157
6

O      6.0986      8.1217      4.9287
O      5.2452      7.2080      2.7289
H      7.1555      7.5502      3.4307
H      6.0114      9.0487      3.2333
H      5.7191      7.1043      1.9114
C      6.2842      8.0957      3.6126
6

O      6.1011      8.1038      4.9192
O      5.2509      7.2228      2.7133
H      7.1334      7.5741      3.3763
H      5.9588      9.0385      3.2329
H      5.7190      7.0914      1.9171
C      6.2751      8.0968      3.6092
6

O      6.1026      8.0809      4.9085
O      5.2563      7.2377      2.6989
H      7.1304      7.6018      3.3190
H      5.9135      9.0381      3.2249
H      5.7344      7.0832      1.9038
C      6.2640      8.0978      3.6047
6

O      6.1030      8.0527      4.8963
O      5.2615      7.2523      2.6857
H      7.1445      7.6377      3.2619
H      5.8771      9.0449      3.2123
H      5.7627      7.0796      1.8739
C      6.2510      8.0990      3.5984
6

O      6.1031      8.0217      4.8840
O      5.2670      7.2661      2.6729
H      7.1691      7.6877      3.2086
H      5.8513      9.0545      3.1990
H      5.7959      7.0820      1.8381
C      6.2366      8.1005      3.5891
6

O      6.1037      7.9904      4.8730
O      5.2736      7.2789      2.6598
H      7.1967      7.7559      3.1624
H      5.8373      9.0630      3.1890
H      5.8260      7.0918      1.8075
C      6.2215      8.1026      3.5762
6

O      6.1050      7.9598      4.8634
O      5.2816      7.2901      2.6460
H      7.2210      7.8433      3.1258
H      5.8349      9.0681      3.1854
H      5.8474      7.1097      1.7887
C      6.2059      8.1052      3.5594
6

O      6.1072      7.9305      4.8551
O      5.2911      7.2999      2.6312
H      7.2383      7.9480      3.1002
H      5.8421      9.0694      3.1897
H      5.8578      7.1350      1.7835
C      6.1903      8.1085      3.5393
6

O      6.4264      8.4219      5.0160
O      5.1059      7.5739      2.9743
H      6.9866      8.0514      3.0727
H      5.9122      9.3606      3.5322
H      4.2414      7.9864      2.7982
C      6.0577      8.2615      3.6587
6

O      6.4019      8.4044      5.0187
O      5.1270      7.5433      2.9579
H      7.0301      8.0255      3.1605
H      5.9569      9.3402      3.5307
H      4.2758      8.0805      2.7857
C      6.0791      8.2507      3.6653
6

O      6.3771      8.3827      5.0212
O      5.1462      7.5113      2.9425
H      7.0771      7.9975      3.2522
H      6.0021      9.3190      3.5239
H      4.3300      8.1634      2.7747
C      6.1022      8.2422      3.6724
6

O      6.3523      8.3567      5.0236
O      5.1631      7.4792      2.9282
H      7.1293      7.9670      3.3404
H      6.0466      9.3010      3.5103
H      4.4101      8.2256      2.7645
C      6.1267      8.2352      3.6799
6

O      6.3276      8.3269      5.0264
O      5.1781      7.4476      2.9153
H      7.1856      7.9336      3.4191
H      6.0902      9.2885      3.4890
H      4.5132      8.2629      2.7536
C      6.1522      8.2290      3.6872
6

O      6.3031      8.2936      5.0293
O      5.1917      7.4171      2.9040
H      7.2409      7.8976      3.4837
H      6.1329      9.2814      3.4607
H      4.6305      8.2759      2.7405
C      6.1785      8.2228      3.6941
6

O      6.2789      8.2577      5.0326
O      5.2043      7.3880      2.8945
H      7.2897      7.8599      3.5317
H      6.1750      9.2773      3.4274
H      4.7504      8.2703      2.7235
C      6.2058      8.2160      3.7001
6

O      6.2546      8.2201      5.0361
O      5.2161      7.3603      2.8871
H      7.3270      7.8221      3.5623
H      6.2163      9.2723      3.3921
H      4.8637      8.2560      2.7017
C      6.2339      8.2083      3.7047
6

O      6.2298      8.1821      5.0398
O      5.2273      7.3335      2.8821
H      7.3498      7.7857      3.5757
H      6.2562      9.2630      3.3584
H      4.9643      8.2441      2.6735
C      6.2629      8.1994      3.7077
6

O      6.2034      8.1447      5.0433
O      5.2375      7.3078      2.8794
H      7.3577      7.7521      3.5739
H      6.2944      9.2469      3.3293
H      5.0491      8.2410      2.6375
C      6.2924      8.1892      3.7091
6

O      6.1748      8.1090      5.0464
O      5.2467      7.2836      2.8790
H      7.3535      7.7230      3.5605
H      6.3305      9.2236      3.3069
H      5.1190      8.2443      2.5947
C      6.3218      8.1776      3.7086
6

O      6.1448      8.0755      5.0490
O      5.2547      7.2618      2.8807
H      7.3418      7.6992      3.5388
H      6.3648      9.1944      3.2927
H      5.1761      8.2457      2.5484
C      6.3503      8.1644      3.7064
6

O      6.1151      8.0444      5.0507
O      5.2616      7.2432      2.8842
H      7.3286      7.6797      3.5111
H      6.3972      9.1622      3.2866
H      5.2220      8.2364      2.5030
C      6.3769      8.1493      3.7027
6

O      6.0870      8.0160      5.0514
O      5.2676      7.2281      2.8894
H      7.3215      7.6626      3.4794
H      6.4273      9.1316      3.2876
H      5.2577      8.2117      2.4613
C      6.4005      8.1322      3.6977
6

O      6.0616      7.9902      5.0511
O      5.2729      7.2165      2.8960
H      7.3268      7.6456      3.4456
H      6.4543      9.1074      3.2937
H      5.2842      8.1714      2.4235
C      6.4203      8.1130      3.6921
6

O      6.0391      7.9671      5.0495
O      5.2781      7.2080      2.9040
H      7.3470      7.6284      3.4122
H      6.4772      9.0927      3.3029
H      5.3015      8.1194      2.3877
C      6.4356      8.0916      3.6862
6

O      6.0199      7.9469      5.0466
O      5.2833      7.2022      2.9133
H      7.3793      7.6129      3.3827
H      6.4947      9.0876      3.3141
H      5.3094      8.0611      2.3509
C      6.4464      8.0682      3.6801
6

O      6.0040      7.9296      5.0421
O      5.2890      7.1986      2.9238
H      7.4173      7.6022      3.3609
H      6.5060      9.0888      3.3270
H      5.3074      8.0021      2.3094
C      6.4527      8.0429      3.6740
6

O      5.9911      7.9153      5.0360
O      5.2953      7.1969      2.9353
H      7.4545      7.5990      3.3498
H      6.5106      9.0909      3.3419
H      5.2949      7.9455      2.2604
C      6.4549      8.0162      3.6676
6

O      5.9411      7.9873      4.9418
O      5.3407      7.1808      2.9973
H      7.3528      7.4459      3.6205
H      6.5202      8.9297      3.0094
H      5.2538      7.3285      2.0574
C      6.3079      7.8844      3.6568
6

O      5.9491      8.0088      4.9493
O      5.3275      7.1677      2.9869
H      7.3393      7.4151      3.5794
H      6.5616      8.9015      2.9985
H      5.3119      7.3538      2.0513
C      6.3098      7.9097      3.6597
6

O      5.9587      8.0321      4.9569
O      5.3142      7.1550      2.9763
H      7.3262      7.3976      3.5395
H      6.6005      8.8693      2.9983
H      5.3721      7.3832      2.0357
C      6.3121      7.9352      3.6609
6

O      5.9697      8.0567      4.9646
O      5.3008      7.1432      2.9650
H      7.3110      7.3955      3.5064
H      6.6334      8.8392      3.0066
H      5.4327      7.4127      2.0170
C      6.3148      7.9597      3.6603
6

O      5.9820      8.0821      4.9722
O      5.2878      7.1330      2.9525
H      7.2925      7.4085      3.4847
H      6.6576      8.8183      3.0195
H      5.4908      7.4371      2.0041
C      6.3179      7.9824      3.6581
6

O      5.9952      8.1079      4.9793
O      5.2755      7.1247      2.9384
H      7.2707      7.4335      3.4766
H      6.6716      8.8138      3.0322
H      5.5431      7.4515      2.0030
C      6.3214      8.0023      3.6549
6

O      6.0090      8.1339      4.9855
O      5.2643      7.1187      2.9227
H      7.2484      7.4649      3.4814
H      6.6750      8.8305      3.0409
H      5.5871      7.4535      2.0148
C      6.3247      8.0188      3.6514
6

O      6.0230      8.1594      4.9901
O      5.2545      7.1154      2.9056
H      7.2307      7.4960      3.4965
H      6.6668      8.8685      3.0445
H      5.6216      7.4429      2.0354
C      6.3274      8.0322      3.6480
6

O      6.0365      8.1832      4.9927
O      5.2462      7.1145      2.8878
H      7.2236      7.5200      3.5179
H      6.6455      8.9224      3.0457
H      5.6479      7.4220      2.0565
C      6.3289      8.0432      3.6450
6

O      6.0487      8.2011      4.9932
O      5.2393      7.1160      2.8700
H      7.2311      7.5329      3.5416
H      6.6102      8.9829      3.0489
H      5.6699      7.3946      2.0673
C      6.3287      8.0523      3.6422
6

O      6.0586      8.2078      4.9914
O      5.2338      7.1196      2.8531
H      7.2514      7.5349      3.5642
H      6.5610      9.0405      3.0578
H      5.6917      7.3643      2.0587
C      6.3267      8.0604      3.6393
6

O      6.0663      8.2052      4.9873
O      5.2296      7.1252      2.8374
H      7.2771      7.5294      3.5824
H      6.5001      9.0876      3.0739
H      5.7151      7.3321      2.0290
C      6.3233      8.0677      3.6362
6

O      6.0728      8.1982      4.9813
O      5.2270      7.1328      2.8225
H      7.2979      7.5202      3.5929
H      6.4304      9.1195      3.0966
H      5.7371      7.2972      1.9856
C      6.3190      8.0742      3.6327
6

O      6.0786      8.1889      4.9739
O      5.2261      7.1421      2.8079
H      7.3058      7.5111      3.5930
H      6.3557      9.1345      3.1240
H      5.7530      7.2595      1.9407
C      6.3142      8.0799      3.6289
6

O      6.0837      8.1777      4.9655
O      5.2270      7.1532      2.7931
H      7.2973      7.5057      3.5815
H      6.2797      9.1329      3.1535
H      5.7595      7.2204      1.9050
C      6.3091      8.0848      3.6252
6

O      6.0882      8.1651      4.9565
O      5.2298      7.1656      2.7778
H      7.2724      7.5065      3.5580
H      6.2054      9.1176      3.1821
H      5.7561      7.1828      1.8855
C      6.3037      8.0888      3.6218
6

O      6.0922      8.1515      4.9471
O      5.2340      7.1791      2.7618
H      7.2347      7.5144      3.5236
H      6.1352      9.0938      3.2067
H      5.7448      7.1497      1.8838
C      6.2980      8.0919      3.6186
6

O      6.0956      8.1371      4.9378
O      5.2394      7.1933      2.7453
H      7.1923      7.5296      3.4803
H      6.0703      9.0686      3.2244
H      5.7302      7.1234      1.8958
C      6.2917      8.0942      3.6157
6

O      6.0986      8.1217      4.9287
O      5.2452      7.2080      2.7289
H      7.1555      7.5502      3.4307
H      6.0114      9.0487      3.2333
H      5.7191      7.1043      1.9114
C      6.2842      8.0957      3.6126
6

O      6.1011      8.1038      4.9192
O      5.2509      7.2228      2.7133
H      7.1334      7.5741      3.3763
H      5.9588      9.0385      3.2329
H      5.7190      7.0914      1.9171
C      6.2751      8.0968      3.6092
6

O      6.1026      8.0809      4.9085
O      5.2563      7.2377      2.6989
H      7.1304      7.6018      3.3190
H      5.9135      9.0381      3.2249
H      5.7344      7.0832      1.9038
C      6.2640      8.0978      3.6047
6

O      6.1030      8.0527      4.8963
O      5.2615      7.2523      2.6857
H      7.1445      7.6377      3.2619
H      5.8771      9.0449      3.2123
H      5.7627      7.0796      1.8739
C      6.2510      8.0990      3.5984
6

O      6.1031      8.0217      4.8840
O      5.2670      7.2661      2.6729
H      7.1691      7.6877      3.2086
H      5.8513      9.0545      3.1990
H      5.7959      7.0820      1.8381
C      6.2366      8.1005      3.5891
6

O      6.1037      7.9904      4.8730
O      5.2736      7.2789      2.6598
H      7.1967      7.7559      3.1624
H      5.8373      9.0630      3.1890
H      5.8260      7.0918      1.8075
C      6.2215      8.1026      3.5762
6

O      6.1050      7.9598      4.8634
O      5.2816      7.2901      2.6460
H      7.2210      7.8433      3.1258
H      5.8349      9.0681      3.1854
H      5.8474      7.1097      1.7887
C      6.2059      8.1052      3.5594
6

O      6.1072      7.9305      4.8551
O      5.2911      7.2999      2.6312
H      7.2383      7.9480      3.1002
H      5.8421      9.0694      3.1897
H      5.8578      7.1350      1.7835
C      6.1903      8.1085      3.5393
