19

O     10.2485     -1.0214      3.9621
O      7.4531      0.0867      7.1373
O      8.8566      0.5355      3.2492
H      9.3156      1.5347      7.4196
H      8.3240      2.7493      5.6300
H      6.2790      0.1812      7.6462
H     10.1279      0.7165      5.3191
H      4.3808      4.6904      4.2696
N      4.1327      3.7617      4.3263
N      9.0637     -2.0069      5.4687
C      9.8845     -0.9336      5.5366
C      5.3252      3.3300      4.2274
C      8.2214      0.6526      4.4517
C      9.1843      0.2371      5.5160
C      5.9821      2.0727      4.1107
C      7.3951      2.1422      5.9716
C      8.3064      1.0006      6.7572
C      8.5107     -2.7311      4.7682
C      7.1352      1.5405      4.5968
19

O     10.2564     -1.0264      3.9850
O      7.4768      0.0818      7.1475
O      8.8689      0.5331      3.2341
H      9.2522      1.4884      7.3689
H      8.3237      2.7637      5.6905
H      6.2586      0.1386      7.6027
H     10.1521      0.7598      5.2860
H      4.3851      4.7276      4.2223
N      4.1477      3.7633      4.3100
N      9.0700     -2.0119      5.4708
C      9.8760     -0.9461      5.5467
C      5.3315      3.3236      4.2024
C      8.2079      0.6417      4.4512
C      9.1804      0.2245      5.5143
C      5.9790      2.0549      4.1047
C      7.3857      2.1440      6.0002
C      8.2968      0.9998      6.7608
C      8.5321     -2.7654      4.7620
C      7.1376      1.5594      4.6063
19

O     10.2663     -1.0319      4.0069
O      7.5022      0.0747      7.1589
O      8.8804      0.5303      3.2212
H      9.1656      1.4401      7.3194
H      8.3201      2.7828      5.7551
H      6.2398      0.0987      7.5581
H     10.1670      0.8180      5.2555
H      4.3826      4.7898      4.1748
N      4.1669      3.7627      4.2956
N      9.0765     -2.0198      5.4722
C      9.8711     -0.9610      5.5562
C      5.3355      3.3143      4.1790
C      8.1961      0.6294      4.4479
C      9.1739      0.2203      5.5138
C      5.9728      2.0384      4.0966
C      7.3782      2.1454      6.0284
C      8.2890      1.0002      6.7617
C      8.5546     -2.8005      4.7570
C      7.1428      1.5779      4.6207
19

O     10.2924     -1.0446      4.0460
O      7.5549      0.0518      7.1855
O      8.8989      0.5225      3.2012
H     10.1564     -1.7094      3.1688
H      8.9978      1.3710      7.2710
H      8.3002      2.8210      5.8844
H     10.1448      0.9530      5.2129
H      4.3435      4.9151      4.0843
N      4.2157      3.7608      4.2703
N      9.0871     -2.0495      5.4715
C      9.8657     -0.9938      5.5696
C      5.3376      3.2879      4.1371
C      8.1782      0.6030      4.4345
C      9.1552      0.2368      5.5142
C      5.9524      2.0081      4.0753
C      7.3690      2.1475      6.0815
C      8.2758      1.0039      6.7525
C      8.6038     -2.8687      4.7531
C      7.1621      1.6131      4.6633
19

O     10.3086     -1.0515      4.0629
O      7.5811      0.0354      7.2005
O      8.9022      0.5177      3.1932
H     10.1185     -1.6511      3.1849
H      8.9683      1.3745      7.3054
H      8.2854      2.8345      5.9421
H     10.1041      1.0159      5.2046
H      4.3083      4.9533      4.0438
N      4.2434      3.7616      4.2580
N      9.0908     -2.0724      5.4690
C      9.8572     -1.0099      5.5690
C      5.3365      3.2711      4.1184
C      8.1721      0.5902      4.4254
C      9.1438      0.2563      5.5141
C      5.9397      1.9932      4.0628
C      7.3672      2.1481      6.1053
C      8.2679      1.0057      6.7399
C      8.6303     -2.9009      4.7549
C      7.1753      1.6297      4.6904
19

O     10.3268     -1.0585      4.0786
O      7.6066      0.0156      7.2165
O      8.8977      0.5132      3.1859
H     10.0774     -1.5917      3.2333
H      8.9794      1.4052      7.3802
H      8.2688      2.8428      5.9915
H     10.0450      1.0697      5.2059
H      4.2676      4.9662      4.0073
N      4.2716      3.7640      4.2455
N      9.0937     -2.1002      5.4653
C      9.8430     -1.0246      5.5618
C      5.3345      3.2521      4.1011
C      8.1678      0.5785      4.4154
C      9.1315      0.2817      5.5135
C      5.9267      1.9776      4.0499
C      7.3671      2.1482      6.1267
C      8.2596      1.0072      6.7220
C      8.6575     -2.9319      4.7590
C      7.1899      1.6456      4.7201
19

O     10.3471     -1.0652      4.0938
O      7.6313     -0.0072      7.2330
O      8.8866      0.5087      3.1792
H     10.0313     -1.5368      3.3047
H      9.0070      1.4492      7.4716
H      8.2515      2.8465      6.0314
H      9.9711      1.1127      5.2165
H      4.2247      4.9531      3.9752
N      4.2992      3.7683      4.2330
N      9.0960     -2.1321      5.4609
C      9.8275     -1.0359      5.5511
C      5.3321      3.2311      4.0852
C      8.1651      0.5684      4.4049
C      9.1186      0.3120      5.5122
C      5.9144      1.9607      4.0373
C      7.3687      2.1473      6.1456
C      8.2528      1.0094      6.7013
C      8.6848     -2.9625      4.7648
C      7.2050      1.6609      4.7512
19

O     10.2485     -1.0214      3.9621
O      7.4531      0.0867      7.1373
O      8.8566      0.5355      3.2492
H      9.3156      1.5347      7.4196
H      8.3240      2.7493      5.6300
H      6.2790      0.1812      7.6462
H     10.1279      0.7165      5.3191
H      4.3808      4.6904      4.2696
N      4.1327      3.7617      4.3263
N      9.0637     -2.0069      5.4687
C      9.8845     -0.9336      5.5366
C      5.3252      3.3300      4.2274
C      8.2214      0.6526      4.4517
C      9.1843      0.2371      5.5160
C      5.9821      2.0727      4.1107
C      7.3951      2.1422      5.9716
C      8.3064      1.0006      6.7572
C      8.5107     -2.7311      4.7682
C      7.1352      1.5405      4.5968
19

O     10.2564     -1.0264      3.9850
O      7.4768      0.0818      7.1475
O      8.8689      0.5331      3.2341
H      9.2522      1.4884      7.3689
H      8.3237      2.7637      5.6905
H      6.2586      0.1386      7.6027
H     10.1521      0.7598      5.2860
H      4.3851      4.7276      4.2223
N      4.1477      3.7633      4.3100
N      9.0700     -2.0119      5.4708
C      9.8760     -0.9461      5.5467
C      5.3315      3.3236      4.2024
C      8.2079      0.6417      4.4512
C      9.1804      0.2245      5.5143
C      5.9790      2.0549      4.1047
C      7.3857      2.1440      6.0002
C      8.2968      0.9998      6.7608
C      8.5321     -2.7654      4.7620
C      7.1376      1.5594      4.6063
19

O     10.2663     -1.0319      4.0069
O      7.5022      0.0747      7.1589
O      8.8804      0.5303      3.2212
H      9.1656      1.4401      7.3194
H      8.3201      2.7828      5.7551
H      6.2398      0.0987      7.5581
H     10.1670      0.8180      5.2555
H      4.3826      4.7898      4.1748
N      4.1669      3.7627      4.2956
N      9.0765     -2.0198      5.4722
C      9.8711     -0.9610      5.5562
C      5.3355      3.3143      4.1790
C      8.1961      0.6294      4.4479
C      9.1739      0.2203      5.5138
C      5.9728      2.0384      4.0966
C      7.3782      2.1454      6.0284
C      8.2890      1.0002      6.7617
C      8.5546     -2.8005      4.7570
C      7.1428      1.5779      4.6207
19

O     10.2924     -1.0446      4.0460
O      7.5549      0.0518      7.1855
O      8.8989      0.5225      3.2012
H     10.1564     -1.7094      3.1688
H      8.9978      1.3710      7.2710
H      8.3002      2.8210      5.8844
H     10.1448      0.9530      5.2129
H      4.3435      4.9151      4.0843
N      4.2157      3.7608      4.2703
N      9.0871     -2.0495      5.4715
C      9.8657     -0.9938      5.5696
C      5.3376      3.2879      4.1371
C      8.1782      0.6030      4.4345
C      9.1552      0.2368      5.5142
C      5.9524      2.0081      4.0753
C      7.3690      2.1475      6.0815
C      8.2758      1.0039      6.7525
C      8.6038     -2.8687      4.7531
C      7.1621      1.6131      4.6633
19

O     10.3086     -1.0515      4.0629
O      7.5811      0.0354      7.2005
O      8.9022      0.5177      3.1932
H     10.1185     -1.6511      3.1849
H      8.9683      1.3745      7.3054
H      8.2854      2.8345      5.9421
H     10.1041      1.0159      5.2046
H      4.3083      4.9533      4.0438
N      4.2434      3.7616      4.2580
N      9.0908     -2.0724      5.4690
C      9.8572     -1.0099      5.5690
C      5.3365      3.2711      4.1184
C      8.1721      0.5902      4.4254
C      9.1438      0.2563      5.5141
C      5.9397      1.9932      4.0628
C      7.3672      2.1481      6.1053
C      8.2679      1.0057      6.7399
C      8.6303     -2.9009      4.7549
C      7.1753      1.6297      4.6904
19

O     10.3268     -1.0585      4.0786
O      7.6066      0.0156      7.2165
O      8.8977      0.5132      3.1859
H     10.0774     -1.5917      3.2333
H      8.9794      1.4052      7.3802
H      8.2688      2.8428      5.9915
H     10.0450      1.0697      5.2059
H      4.2676      4.9662      4.0073
N      4.2716      3.7640      4.2455
N      9.0937     -2.1002      5.4653
C      9.8430     -1.0246      5.5618
C      5.3345      3.2521      4.1011
C      8.1678      0.5785      4.4154
C      9.1315      0.2817      5.5135
C      5.9267      1.9776      4.0499
C      7.3671      2.1482      6.1267
C      8.2596      1.0072      6.7220
C      8.6575     -2.9319      4.7590
C      7.1899      1.6456      4.7201
19

O     10.3471     -1.0652      4.0938
O      7.6313     -0.0072      7.2330
O      8.8866      0.5087      3.1792
H     10.0313     -1.5368      3.3047
H      9.0070      1.4492      7.4716
H      8.2515      2.8465      6.0314
H      9.9711      1.1127      5.2165
H      4.2247      4.9531      3.9752
N      4.2992      3.7683      4.2330
N      9.0960     -2.1321      5.4609
C      9.8275     -1.0359      5.5511
C      5.3321      3.2311      4.0852
C      8.1651      0.5684      4.4049
C      9.1186      0.3120      5.5122
C      5.9144      1.9607      4.0373
C      7.3687      2.1473      6.1456
C      8.2528      1.0094      6.7013
C      8.6848     -2.9625      4.7648
C      7.2050      1.6609      4.7512
