18

O      5.8414      2.0030     10.0806
O      3.0758     -0.7527      7.2129
O      3.7670      2.6274      9.1932
H      3.3353      1.1186      3.7114
H      5.2109      0.5886      5.3292
H      2.8228     -0.4183      7.9982
H      4.6420     -0.6484      4.4868
H      5.3670      1.9355      5.9961
H      2.8344      1.7648      5.2314
H      3.6195      3.3998      8.6626
H      4.1134      2.5473      7.1164
N      5.8241      2.6236      7.8941
N      3.3848      1.0501      4.7447
N      5.1355      0.5876      7.5907
C      4.2655      0.0610      5.2509
C      5.1312      2.1948      9.1134
C      5.1128      1.9043      7.0906
C      4.0019     -0.1232      6.8028
18

O      5.8561      2.0073     10.0942
O      3.0685     -0.7549      7.1997
O      3.7983      2.6283      9.1780
H      3.4156      1.2210      3.6989
H      5.1909      0.6118      5.3378
H      2.8338     -0.4031      8.0803
H      4.5958     -0.6390      4.4260
H      5.3265      1.9045      5.9515
H      2.8097      1.8010      5.2281
H      3.6606      3.4224      8.7511
H      4.0949      2.5329      7.0574
N      5.8356      2.6012      7.8905
N      3.3989      1.0600      4.7590
N      5.1487      0.5873      7.5852
C      4.2632      0.0652      5.2415
C      5.1263      2.1839      9.1011
C      5.1009      1.9012      7.0811
C      4.0427     -0.1448      6.7916
18

O      5.8701      2.0124     10.1077
O      3.0593     -0.7567      7.1869
O      3.8304      2.6261      9.1642
H      3.4917      1.3158      3.6998
H      5.1886      0.6284      5.3437
H      2.8404     -0.3941      8.1553
H      4.5330     -0.6336      4.3716
H      5.2846      1.8807      5.9224
H      2.7942      1.8193      5.2225
H      3.6987      3.4760      8.8197
H      4.0755      2.4984      7.0039
N      5.8515      2.5819      7.8948
N      3.4111      1.0713      4.7709
N      5.1576      0.5862      7.5794
C      4.2603      0.0704      5.2340
C      5.1215      2.1772      9.0884
C      5.0860      1.8944      7.0650
C      4.0903     -0.1645      6.7783
18

O      5.8830      2.0182     10.1207
O      3.0491     -0.7567      7.1755
O      3.8627      2.6214      9.1515
H      3.5615      1.3990      3.7210
H      5.2044      0.6343      5.3442
H      2.8465     -0.3994      8.1993
H      4.4564     -0.6292      4.3272
H      5.2431      1.8652      5.9112
H      2.7906      1.8163      5.2138
H      3.7359      3.5534      8.8732
H      4.0577      2.4461      6.9617
N      5.8710      2.5654      7.9062
N      3.4210      1.0849      4.7799
N      5.1620      0.5839      7.5729
C      4.2574      0.0759      5.2283
C      5.1181      2.1745      9.0760
C      5.0691      1.8843      7.0434
C      4.1429     -0.1834      6.7636
18

O      5.8944      2.0247     10.1327
O      3.0391     -0.7545      7.1658
O      3.8942      2.6162      9.1392
H      3.6229      1.4672      3.7633
H      5.2347      0.6260      5.3360
H      2.8546     -0.4202      8.2031
H      4.3697     -0.6246      4.2964
H      5.2048      1.8576      5.9161
H      2.7975      1.7951      5.2043
H      3.7762      3.6292      8.9199
H      4.0432      2.3801      6.9352
N      5.8932      2.5509      7.9230
N      3.4287      1.1007      4.7857
N      5.1620      0.5801      7.5653
C      4.2550      0.0817      5.2241
C      5.1177      2.1756      9.0646
C      5.0514      1.8719      7.0182
C      4.1990     -0.2025      6.7483
18

O      5.9042      2.0316     10.1437
O      3.0300     -0.7502      7.1576
O      3.9239      2.6120      9.1269
H      3.6741      1.5191      3.8224
H      5.2739      0.6020      5.3163
H      2.8649     -0.4532      8.1672
H      4.2771     -0.6204      4.2814
H      5.1736      1.8566      5.9306
H      2.8085      1.7643      5.1986
H      3.8212      3.6820      8.9638
H      4.0292      2.3055      6.9264
N      5.9160      2.5380      7.9431
N      3.4345      1.1184      4.7881
N      5.1579      0.5748      7.5563
C      4.2536      0.0874      5.2210
C      5.1218      2.1802      9.0546
C      5.0342      1.8581      6.9914
C      4.2574     -0.2223      6.7331
18

O      5.9121      2.0388     10.1535
O      3.0227     -0.7441      7.1506
O      3.9511      2.6099      9.1146
H      3.7144      1.5555      3.8884
H      5.3152      0.5632      5.2832
H      2.8757     -0.4928      8.1009
H      4.1833     -0.6194      4.2829
H      5.1534      1.8602      5.9439
H      2.8133      1.7355      5.2029
H      3.8702      3.7025      9.0062
H      4.0107      2.2295      6.9335
N      5.9364      2.5269      7.9644
N      3.4392      1.1369      4.7875
N      5.1502      0.5679      7.5457
C      4.2533      0.0930      5.2188
C      5.1317      2.1877      9.0461
C      5.0185      1.8437      6.9655
C      4.3172     -0.2434      6.7182
18

O      5.9180      2.0461     10.1620
O      3.0179     -0.7370      7.1434
O      3.9751      2.6103      9.1023
H      3.7463      1.5818      3.9470
H      5.3501      0.5134      5.2358
H      2.8852     -0.5311      8.0271
H      4.0924     -0.6241      4.3007
H      5.1477      1.8666      5.9435
H      2.8032      1.7183      5.2217
H      3.9222      3.6896      9.0473
H      3.9834      2.1590      6.9530
N      5.9517      2.5177      7.9852
N      3.4436      1.1551      4.7846
N      5.1395      0.5595      7.5333
C      4.2544      0.0984      5.2169
C      5.1484      2.1974      9.0399
C      5.0045      1.8292      6.9428
C      4.3774     -0.2662      6.7039
18

O      5.9218      2.0536     10.1692
O      3.0161     -0.7301      7.1341
O      3.9956      2.6131      9.0899
H      3.7755      1.6069      3.9837
H      5.3726      0.4571      5.1743
H      2.8907     -0.5587      7.9843
H      4.0080     -0.6361      4.3339
H      5.1583      1.8738      5.9237
H      2.7784      1.7135      5.2527
H      3.9764      3.6481      9.0869
H      3.9468      2.0979      6.9819
N      5.9624      2.5099      8.0045
N      3.4476      1.1720      4.7808
N      5.1266      0.5499      7.5192
C      4.2566      0.1033      5.2151
C      5.1726      2.2090      9.0365
C      4.9920      1.8152      6.9246
C      4.4371     -0.2907      6.6902
18

O      5.9236      2.0616     10.1749
O      3.0175     -0.7241      7.1212
O      4.0125      2.6177      9.0775
H      3.8071      1.6381      3.9905
H      5.3794      0.3994      5.1002
H      2.8903     -0.5708      8.0007
H      3.9327     -0.6555      4.3815
H      5.1841      1.8791      5.8910
H      2.7478      1.7151      5.2868
H      4.0314      3.5903      9.1251
H      3.9045      2.0489      7.0163
N      5.9704      2.5024      8.0210
N      3.4506      1.1876      4.7772
N      5.1124      0.5391      7.5034
C      4.2597      0.1075      5.2127
C      5.2041      2.2222      9.0366
C      4.9802      1.8017      6.9113
C      4.4956     -0.3170      6.6771
18

O      5.9235      2.0703     10.1795
O      3.0215     -0.7191      7.1059
O      4.0256      2.6226      9.0652
H      3.8404      1.6753      3.9721
H      5.3694      0.3444      5.0155
H      2.8880     -0.5721      8.0586
H      3.8687     -0.6815      4.4424
H      5.2221      1.8799      5.8589
H      2.7232      1.7159      5.3134
H      4.0865      3.5381      9.1642
H      3.8633      2.0137      7.0520
N      5.9772      2.4952      8.0339
N      3.4524      1.2023      4.7741
N      5.0981      0.5274      7.4862
C      4.2635      0.1107      5.2095
C      5.2419      2.2372      9.0409
C      4.9687      1.7892      6.9025
C      4.5525     -0.3453      6.6640
18

O      5.9217      2.0799     10.1829
O      3.0274     -0.7151      7.0909
O      4.0355      2.6260      9.0527
H      3.8701      1.7123      3.9422
H      5.3435      0.2954      4.9220
H      2.8909     -0.5709      8.1184
H      3.8176     -0.7130      4.5147
H      5.2683      1.8745      5.8392
H      2.7124      1.7122      5.3251
H      4.1435      3.5161      9.2084
H      3.8302      1.9929      7.0856
N      5.9832      2.4884      8.0430
N      3.4532      1.2165      4.7709
N      5.0845      0.5153      7.4679
C      4.2676      0.1125      5.2053
C      5.2839      2.2542      9.0498
C      4.9570      1.7777      6.8977
C      4.6069     -0.3756      6.6508
18

O      5.9184      2.0905     10.1856
O      3.0345     -0.7119      7.0777
O      4.0425      2.6274      9.0399
H      3.8898      1.7419      3.9145
H      5.3039      0.2545      4.8218
H      2.9038     -0.5732      8.1532
H      3.7794     -0.7466      4.5961
H      5.3174      1.8630      5.8388
H      2.7179      1.7046      5.3191
H      4.2037      3.5326      9.2619
H      3.8109      1.9865      7.1151
N      5.9891      2.4823      8.0478
N      3.4535      1.2306      4.7667
N      5.0724      0.5032      7.4491
C      4.2717      0.1126      5.1998
C      5.3279      2.2732      9.0636
C      4.9450      1.7674      6.8967
C      4.6583     -0.4079      6.6372
18

O      5.9143      2.1021     10.1881
O      3.0426     -0.7099      7.0670
O      4.0473      2.6277      9.0270
H      3.8955      1.7595      3.8979
H      5.2539      0.2224      4.7171
H      2.9293     -0.5825      8.1519
H      3.7534     -0.7771      4.6833
H      5.3641      1.8471      5.8592
H      2.7360      1.6973      5.2970
H      4.2638      3.5713      9.3232
H      3.8080      1.9938      7.1396
N      5.9956      2.4770      8.0476
N      3.4543      1.2442      4.7607
N      5.0623      0.4916      7.4302
C      4.2752      0.1109      5.1931
C      5.3715      2.2939      9.0825
C      4.9330      1.7582      6.8992
C      4.7065     -0.4419      6.6231
18

O      5.9099      2.1148     10.1912
O      3.0513     -0.7093      7.0588
O      4.0509      2.6285      9.0145
H      3.8859      1.7637      3.8958
H      5.1966      0.1979      4.6109
H      2.9682     -0.6006      8.1142
H      3.7378     -0.7997      4.7716
H      5.4030      1.8299      5.8975
H      2.7578      1.6970      5.2647
H      4.3178      3.6116      9.3872
H      3.8212      2.0144      7.1591
N      6.0034      2.4726      8.0417
N      3.4564      1.2566      4.7522
N      5.0542      0.4805      7.4116
C      4.2779      0.1073      5.1852
C      5.4130      2.3159      9.1061
C      4.9208      1.7500      6.9049
C      4.7514     -0.4770      6.6085
18

O      5.8414      2.0030     10.0806
O      3.0758     -0.7527      7.2129
O      3.7670      2.6274      9.1932
H      3.3353      1.1186      3.7114
H      5.2109      0.5886      5.3292
H      2.8228     -0.4183      7.9982
H      4.6420     -0.6484      4.4868
H      5.3670      1.9355      5.9961
H      2.8344      1.7648      5.2314
H      3.6195      3.3998      8.6626
H      4.1134      2.5473      7.1164
N      5.8241      2.6236      7.8941
N      3.3848      1.0501      4.7447
N      5.1355      0.5876      7.5907
C      4.2655      0.0610      5.2509
C      5.1312      2.1948      9.1134
C      5.1128      1.9043      7.0906
C      4.0019     -0.1232      6.8028
18

O      5.8561      2.0073     10.0942
O      3.0685     -0.7549      7.1997
O      3.7983      2.6283      9.1780
H      3.4156      1.2210      3.6989
H      5.1909      0.6118      5.3378
H      2.8338     -0.4031      8.0803
H      4.5958     -0.6390      4.4260
H      5.3265      1.9045      5.9515
H      2.8097      1.8010      5.2281
H      3.6606      3.4224      8.7511
H      4.0949      2.5329      7.0574
N      5.8356      2.6012      7.8905
N      3.3989      1.0600      4.7590
N      5.1487      0.5873      7.5852
C      4.2632      0.0652      5.2415
C      5.1263      2.1839      9.1011
C      5.1009      1.9012      7.0811
C      4.0427     -0.1448      6.7916
18

O      5.8701      2.0124     10.1077
O      3.0593     -0.7567      7.1869
O      3.8304      2.6261      9.1642
H      3.4917      1.3158      3.6998
H      5.1886      0.6284      5.3437
H      2.8404     -0.3941      8.1553
H      4.5330     -0.6336      4.3716
H      5.2846      1.8807      5.9224
H      2.7942      1.8193      5.2225
H      3.6987      3.4760      8.8197
H      4.0755      2.4984      7.0039
N      5.8515      2.5819      7.8948
N      3.4111      1.0713      4.7709
N      5.1576      0.5862      7.5794
C      4.2603      0.0704      5.2340
C      5.1215      2.1772      9.0884
C      5.0860      1.8944      7.0650
C      4.0903     -0.1645      6.7783
18

O      5.8830      2.0182     10.1207
O      3.0491     -0.7567      7.1755
O      3.8627      2.6214      9.1515
H      3.5615      1.3990      3.7210
H      5.2044      0.6343      5.3442
H      2.8465     -0.3994      8.1993
H      4.4564     -0.6292      4.3272
H      5.2431      1.8652      5.9112
H      2.7906      1.8163      5.2138
H      3.7359      3.5534      8.8732
H      4.0577      2.4461      6.9617
N      5.8710      2.5654      7.9062
N      3.4210      1.0849      4.7799
N      5.1620      0.5839      7.5729
C      4.2574      0.0759      5.2283
C      5.1181      2.1745      9.0760
C      5.0691      1.8843      7.0434
C      4.1429     -0.1834      6.7636
18

O      5.8944      2.0247     10.1327
O      3.0391     -0.7545      7.1658
O      3.8942      2.6162      9.1392
H      3.6229      1.4672      3.7633
H      5.2347      0.6260      5.3360
H      2.8546     -0.4202      8.2031
H      4.3697     -0.6246      4.2964
H      5.2048      1.8576      5.9161
H      2.7975      1.7951      5.2043
H      3.7762      3.6292      8.9199
H      4.0432      2.3801      6.9352
N      5.8932      2.5509      7.9230
N      3.4287      1.1007      4.7857
N      5.1620      0.5801      7.5653
C      4.2550      0.0817      5.2241
C      5.1177      2.1756      9.0646
C      5.0514      1.8719      7.0182
C      4.1990     -0.2025      6.7483
18

O      5.9042      2.0316     10.1437
O      3.0300     -0.7502      7.1576
O      3.9239      2.6120      9.1269
H      3.6741      1.5191      3.8224
H      5.2739      0.6020      5.3163
H      2.8649     -0.4532      8.1672
H      4.2771     -0.6204      4.2814
H      5.1736      1.8566      5.9306
H      2.8085      1.7643      5.1986
H      3.8212      3.6820      8.9638
H      4.0292      2.3055      6.9264
N      5.9160      2.5380      7.9431
N      3.4345      1.1184      4.7881
N      5.1579      0.5748      7.5563
C      4.2536      0.0874      5.2210
C      5.1218      2.1802      9.0546
C      5.0342      1.8581      6.9914
C      4.2574     -0.2223      6.7331
18

O      5.9121      2.0388     10.1535
O      3.0227     -0.7441      7.1506
O      3.9511      2.6099      9.1146
H      3.7144      1.5555      3.8884
H      5.3152      0.5632      5.2832
H      2.8757     -0.4928      8.1009
H      4.1833     -0.6194      4.2829
H      5.1534      1.8602      5.9439
H      2.8133      1.7355      5.2029
H      3.8702      3.7025      9.0062
H      4.0107      2.2295      6.9335
N      5.9364      2.5269      7.9644
N      3.4392      1.1369      4.7875
N      5.1502      0.5679      7.5457
C      4.2533      0.0930      5.2188
C      5.1317      2.1877      9.0461
C      5.0185      1.8437      6.9655
C      4.3172     -0.2434      6.7182
18

O      5.9180      2.0461     10.1620
O      3.0179     -0.7370      7.1434
O      3.9751      2.6103      9.1023
H      3.7463      1.5818      3.9470
H      5.3501      0.5134      5.2358
H      2.8852     -0.5311      8.0271
H      4.0924     -0.6241      4.3007
H      5.1477      1.8666      5.9435
H      2.8032      1.7183      5.2217
H      3.9222      3.6896      9.0473
H      3.9834      2.1590      6.9530
N      5.9517      2.5177      7.9852
N      3.4436      1.1551      4.7846
N      5.1395      0.5595      7.5333
C      4.2544      0.0984      5.2169
C      5.1484      2.1974      9.0399
C      5.0045      1.8292      6.9428
C      4.3774     -0.2662      6.7039
18

O      5.9218      2.0536     10.1692
O      3.0161     -0.7301      7.1341
O      3.9956      2.6131      9.0899
H      3.7755      1.6069      3.9837
H      5.3726      0.4571      5.1743
H      2.8907     -0.5587      7.9843
H      4.0080     -0.6361      4.3339
H      5.1583      1.8738      5.9237
H      2.7784      1.7135      5.2527
H      3.9764      3.6481      9.0869
H      3.9468      2.0979      6.9819
N      5.9624      2.5099      8.0045
N      3.4476      1.1720      4.7808
N      5.1266      0.5499      7.5192
C      4.2566      0.1033      5.2151
C      5.1726      2.2090      9.0365
C      4.9920      1.8152      6.9246
C      4.4371     -0.2907      6.6902
18

O      5.9236      2.0616     10.1749
O      3.0175     -0.7241      7.1212
O      4.0125      2.6177      9.0775
H      3.8071      1.6381      3.9905
H      5.3794      0.3994      5.1002
H      2.8903     -0.5708      8.0007
H      3.9327     -0.6555      4.3815
H      5.1841      1.8791      5.8910
H      2.7478      1.7151      5.2868
H      4.0314      3.5903      9.1251
H      3.9045      2.0489      7.0163
N      5.9704      2.5024      8.0210
N      3.4506      1.1876      4.7772
N      5.1124      0.5391      7.5034
C      4.2597      0.1075      5.2127
C      5.2041      2.2222      9.0366
C      4.9802      1.8017      6.9113
C      4.4956     -0.3170      6.6771
18

O      5.9235      2.0703     10.1795
O      3.0215     -0.7191      7.1059
O      4.0256      2.6226      9.0652
H      3.8404      1.6753      3.9721
H      5.3694      0.3444      5.0155
H      2.8880     -0.5721      8.0586
H      3.8687     -0.6815      4.4424
H      5.2221      1.8799      5.8589
H      2.7232      1.7159      5.3134
H      4.0865      3.5381      9.1642
H      3.8633      2.0137      7.0520
N      5.9772      2.4952      8.0339
N      3.4524      1.2023      4.7741
N      5.0981      0.5274      7.4862
C      4.2635      0.1107      5.2095
C      5.2419      2.2372      9.0409
C      4.9687      1.7892      6.9025
C      4.5525     -0.3453      6.6640
18

O      5.9217      2.0799     10.1829
O      3.0274     -0.7151      7.0909
O      4.0355      2.6260      9.0527
H      3.8701      1.7123      3.9422
H      5.3435      0.2954      4.9220
H      2.8909     -0.5709      8.1184
H      3.8176     -0.7130      4.5147
H      5.2683      1.8745      5.8392
H      2.7124      1.7122      5.3251
H      4.1435      3.5161      9.2084
H      3.8302      1.9929      7.0856
N      5.9832      2.4884      8.0430
N      3.4532      1.2165      4.7709
N      5.0845      0.5153      7.4679
C      4.2676      0.1125      5.2053
C      5.2839      2.2542      9.0498
C      4.9570      1.7777      6.8977
C      4.6069     -0.3756      6.6508
18

O      5.9184      2.0905     10.1856
O      3.0345     -0.7119      7.0777
O      4.0425      2.6274      9.0399
H      3.8898      1.7419      3.9145
H      5.3039      0.2545      4.8218
H      2.9038     -0.5732      8.1532
H      3.7794     -0.7466      4.5961
H      5.3174      1.8630      5.8388
H      2.7179      1.7046      5.3191
H      4.2037      3.5326      9.2619
H      3.8109      1.9865      7.1151
N      5.9891      2.4823      8.0478
N      3.4535      1.2306      4.7667
N      5.0724      0.5032      7.4491
C      4.2717      0.1126      5.1998
C      5.3279      2.2732      9.0636
C      4.9450      1.7674      6.8967
C      4.6583     -0.4079      6.6372
18

O      5.9143      2.1021     10.1881
O      3.0426     -0.7099      7.0670
O      4.0473      2.6277      9.0270
H      3.8955      1.7595      3.8979
H      5.2539      0.2224      4.7171
H      2.9293     -0.5825      8.1519
H      3.7534     -0.7771      4.6833
H      5.3641      1.8471      5.8592
H      2.7360      1.6973      5.2970
H      4.2638      3.5713      9.3232
H      3.8080      1.9938      7.1396
N      5.9956      2.4770      8.0476
N      3.4543      1.2442      4.7607
N      5.0623      0.4916      7.4302
C      4.2752      0.1109      5.1931
C      5.3715      2.2939      9.0825
C      4.9330      1.7582      6.8992
C      4.7065     -0.4419      6.6231
18

O      5.9099      2.1148     10.1912
O      3.0513     -0.7093      7.0588
O      4.0509      2.6285      9.0145
H      3.8859      1.7637      3.8958
H      5.1966      0.1979      4.6109
H      2.9682     -0.6006      8.1142
H      3.7378     -0.7997      4.7716
H      5.4030      1.8299      5.8975
H      2.7578      1.6970      5.2647
H      4.3178      3.6116      9.3872
H      3.8212      2.0144      7.1591
N      6.0034      2.4726      8.0417
N      3.4564      1.2566      4.7522
N      5.0542      0.4805      7.4116
C      4.2779      0.1073      5.1852
C      5.4130      2.3159      9.1061
C      4.9208      1.7500      6.9049
C      4.7514     -0.4770      6.6085
