19

O     10.2511     -1.2182      3.9975
O      8.4623     -0.6246      7.3160
O      8.5276      0.1367      3.0589
H      9.3029      0.8651      7.4948
H      7.5952     -1.0707      7.4647
H      8.5595      0.5458      2.1875
H      6.5313      1.7827      7.0203
H      9.8721     -1.7572      6.1236
H      9.9113      1.3766      5.6295
H      3.9111      3.2284      2.5083
N      4.9133      3.3801      2.5336
C     10.0074     -0.8920      5.3210
C      5.7067      2.8485      3.4335
C      8.3421      0.5021      4.2638
C      9.4500      0.5021      5.4775
C      6.2875      2.3172      4.4415
C      7.6114      1.4844      6.4472
C      8.7621      0.5294      6.7059
C      7.3651      1.3745      4.9853
19

O     10.2353     -1.2342      3.9932
O      8.4542     -0.6244      7.3192
O      8.5287      0.1226      3.0472
H      9.2381      0.9421      7.3959
H      7.6358     -0.9420      7.5227
H      8.5922      0.5358      2.2172
H      6.5378      1.6840      7.0789
H      9.8770     -1.6719      6.1569
H      9.9001      1.4236      5.6538
H      3.9106      3.1302      2.4839
N      4.9004      3.3696      2.5366
C     10.0102     -0.8836      5.3056
C      5.7243      2.8480      3.4259
C      8.3392      0.4936      4.2725
C      9.4498      0.5327      5.4580
C      6.2948      2.3223      4.4554
C      7.6022      1.4948      6.4530
C      8.7556      0.5197      6.6955
C      7.3579      1.3628      5.0015
19

O     10.2187     -1.2498      3.9906
O      8.4481     -0.6262      7.3215
O      8.5300      0.1063      3.0363
H      9.2174      1.0594      7.3353
H      7.6329     -0.8136      7.5817
H      8.6262      0.5412      2.2313
H      6.5530      1.5797      7.1390
H      9.8778     -1.5600      6.1751
H      9.9095      1.4947      5.6662
H      3.9106      3.0326      2.4635
N      4.8893      3.3575      2.5416
C     10.0126     -0.8743      5.2880
C      5.7406      2.8484      3.4160
C      8.3346      0.4860      4.2878
C      9.4483      0.5592      5.4337
C      6.3046      2.3263      4.4700
C      7.5908      1.5036      6.4544
C      8.7436      0.5116      6.6844
C      7.3485      1.3548      5.0185
19

O     10.2014     -1.2651      3.9899
O      8.4452     -0.6295      7.3224
O      8.5313      0.0877      3.0271
H      9.2342      1.2049      7.3072
H      7.5712     -0.6875      7.6508
H      8.6624      0.5640      2.2244
H      6.5740      1.4736      7.1984
H      9.8746     -1.4341      6.1817
H      9.9272      1.5715      5.6608
H      3.9145      2.9412      2.4466
N      4.8799      3.3441      2.5486
C     10.0148     -0.8636      5.2681
C      5.7562      2.8494      3.4045
C      8.3286      0.4791      4.3086
C      9.4463      0.5824      5.4055
C      6.3166      2.3298      4.4844
C      7.5771      1.5102      6.4517
C      8.7271      0.5061      6.6728
C      7.3367      1.3505      5.0356
19

O     10.1835     -1.2801      3.9908
O      8.4433     -0.6341      7.3223
O      8.5320      0.0675      3.0196
H      9.2678      1.3501      7.2898
H      7.4874     -0.5570      7.7204
H      8.7004      0.5973      2.2074
H      6.5980      1.3696      7.2549
H      9.8657     -1.3106      6.1844
H      9.9408      1.6363      5.6326
H      3.9259      2.8638      2.4317
N      4.8716      3.3292      2.5575
C     10.0167     -0.8511      5.2455
C      5.7717      2.8507      3.3921
C      8.3212      0.4728      4.3336
C      9.4444      0.6031      5.3748
C      6.3299      2.3332      4.4982
C      7.5616      1.5139      6.4460
C      8.7085      0.5053      6.6622
C      7.3224      1.3498      5.0520
19

O      9.9110     -1.5396      4.0761
O      8.3464     -0.2215      7.1258
O      8.2803     -0.1029      3.1128
H      6.6267      2.1980      6.7843
H      7.9376     -0.3342      8.1349
H      8.8812      0.6673      2.8887
H      6.4200      0.6793      6.7572
H     10.2694     -0.8148      6.0015
H      9.7591      1.2860      4.0851
H      4.8349      3.2799      1.8945
N      4.9686      3.0829      2.8728
C      9.9895     -0.6943      5.0455
C      6.0530      2.5966      3.1410
C      7.7234      0.0221      4.5205
C      9.1886      0.6874      4.9964
C      6.7167      2.5852      4.4163
C      7.0897      1.3620      6.3833
C      8.7495      0.9826      6.4779
C      6.9632      1.2915      4.9035
19

O     10.2511     -1.2182      3.9975
O      8.4623     -0.6246      7.3160
O      8.5276      0.1367      3.0589
H      9.3029      0.8651      7.4948
H      7.5952     -1.0707      7.4647
H      8.5595      0.5458      2.1875
H      6.5313      1.7827      7.0203
H      9.8721     -1.7572      6.1236
H      9.9113      1.3766      5.6295
H      3.9111      3.2284      2.5083
N      4.9133      3.3801      2.5336
C     10.0074     -0.8920      5.3210
C      5.7067      2.8485      3.4335
C      8.3421      0.5021      4.2638
C      9.4500      0.5021      5.4775
C      6.2875      2.3172      4.4415
C      7.6114      1.4844      6.4472
C      8.7621      0.5294      6.7059
C      7.3651      1.3745      4.9853
19

O     10.2353     -1.2342      3.9932
O      8.4542     -0.6244      7.3192
O      8.5287      0.1226      3.0472
H      9.2381      0.9421      7.3959
H      7.6358     -0.9420      7.5227
H      8.5922      0.5358      2.2172
H      6.5378      1.6840      7.0789
H      9.8770     -1.6719      6.1569
H      9.9001      1.4236      5.6538
H      3.9106      3.1302      2.4839
N      4.9004      3.3696      2.5366
C     10.0102     -0.8836      5.3056
C      5.7243      2.8480      3.4259
C      8.3392      0.4936      4.2725
C      9.4498      0.5327      5.4580
C      6.2948      2.3223      4.4554
C      7.6022      1.4948      6.4530
C      8.7556      0.5197      6.6955
C      7.3579      1.3628      5.0015
19

O     10.2187     -1.2498      3.9906
O      8.4481     -0.6262      7.3215
O      8.5300      0.1063      3.0363
H      9.2174      1.0594      7.3353
H      7.6329     -0.8136      7.5817
H      8.6262      0.5412      2.2313
H      6.5530      1.5797      7.1390
H      9.8778     -1.5600      6.1751
H      9.9095      1.4947      5.6662
H      3.9106      3.0326      2.4635
N      4.8893      3.3575      2.5416
C     10.0126     -0.8743      5.2880
C      5.7406      2.8484      3.4160
C      8.3346      0.4860      4.2878
C      9.4483      0.5592      5.4337
C      6.3046      2.3263      4.4700
C      7.5908      1.5036      6.4544
C      8.7436      0.5116      6.6844
C      7.3485      1.3548      5.0185
19

O     10.2014     -1.2651      3.9899
O      8.4452     -0.6295      7.3224
O      8.5313      0.0877      3.0271
H      9.2342      1.2049      7.3072
H      7.5712     -0.6875      7.6508
H      8.6624      0.5640      2.2244
H      6.5740      1.4736      7.1984
H      9.8746     -1.4341      6.1817
H      9.9272      1.5715      5.6608
H      3.9145      2.9412      2.4466
N      4.8799      3.3441      2.5486
C     10.0148     -0.8636      5.2681
C      5.7562      2.8494      3.4045
C      8.3286      0.4791      4.3086
C      9.4463      0.5824      5.4055
C      6.3166      2.3298      4.4844
C      7.5771      1.5102      6.4517
C      8.7271      0.5061      6.6728
C      7.3367      1.3505      5.0356
19

O     10.1835     -1.2801      3.9908
O      8.4433     -0.6341      7.3223
O      8.5320      0.0675      3.0196
H      9.2678      1.3501      7.2898
H      7.4874     -0.5570      7.7204
H      8.7004      0.5973      2.2074
H      6.5980      1.3696      7.2549
H      9.8657     -1.3106      6.1844
H      9.9408      1.6363      5.6326
H      3.9259      2.8638      2.4317
N      4.8716      3.3292      2.5575
C     10.0167     -0.8511      5.2455
C      5.7717      2.8507      3.3921
C      8.3212      0.4728      4.3336
C      9.4444      0.6031      5.3748
C      6.3299      2.3332      4.4982
C      7.5616      1.5139      6.4460
C      8.7085      0.5053      6.6622
C      7.3224      1.3498      5.0520
19

O      9.9110     -1.5396      4.0761
O      8.3464     -0.2215      7.1258
O      8.2803     -0.1029      3.1128
H      6.6267      2.1980      6.7843
H      7.9376     -0.3342      8.1349
H      8.8812      0.6673      2.8887
H      6.4200      0.6793      6.7572
H     10.2694     -0.8148      6.0015
H      9.7591      1.2860      4.0851
H      4.8349      3.2799      1.8945
N      4.9686      3.0829      2.8728
C      9.9895     -0.6943      5.0455
C      6.0530      2.5966      3.1410
C      7.7234      0.0221      4.5205
C      9.1886      0.6874      4.9964
C      6.7167      2.5852      4.4163
C      7.0897      1.3620      6.3833
C      8.7495      0.9826      6.4779
C      6.9632      1.2915      4.9035
