18

O      9.9417     -0.2748      3.3500
O      6.9794      0.8524      7.0760
O      7.0113      0.6570      3.3283
H      8.8605      0.2793      7.1556
H      7.1035      1.2966      8.0181
H      9.5734      1.2647      4.7015
H      3.9893      4.0797      5.0153
H      3.1062      2.4456      4.6039
H      7.4107      2.9087      7.0090
N      3.8707      2.9498      5.4036
C      9.2399     -0.5838      4.6865
C      5.1542      2.3338      4.8229
C      7.7273      1.3927      4.2539
C      8.6585      0.5624      5.1610
C      6.2024      2.9532      5.1696
C      8.2983      2.4769      6.2869
C      8.3445      1.0397      6.4511
C      7.4649      2.4740      5.1518
18

O      9.9504     -0.2770      3.3520
O      6.9758      0.8432      7.0826
O      7.0151      0.6391      3.3185
H      8.8494      0.2172      7.1869
H      7.1229      1.2643      7.9284
H      9.5591      1.3274      4.6633
H      3.9297      3.9875      5.0546
H      3.1670      2.4420      4.5989
H      7.3928      2.7931      7.0100
N      3.8664      2.9496      5.4034
C      9.2480     -0.5857      4.7093
C      5.1339      2.3529      4.8283
C      7.7321      1.3990      4.2339
C      8.6691      0.5677      5.1498
C      6.2129      2.9527      5.1487
C      8.2819      2.4619      6.2663
C      8.3541      1.0439      6.4333
C      7.4739      2.4703      5.1422
18

O      9.9563     -0.2805      3.3564
O      6.9725      0.8342      7.0880
O      7.0205      0.6237      3.3086
H      8.8465      0.1756      7.2133
H      7.1413      1.2359      7.8515
H      9.5309      1.3747      4.6437
H      3.8690      3.8870      5.1037
H      3.2373      2.4546      4.6165
H      7.3993      2.6824      7.0082
N      3.8636      2.9493      5.3999
C      9.2592     -0.5927      4.7315
C      5.1095      2.3727      4.8336
C      7.7362      1.4018      4.2140
C      8.6785      0.5776      5.1337
C      6.2236      2.9534      5.1270
C      8.2611      2.4487      6.2507
C      8.3650      1.0443      6.4205
C      7.4829      2.4651      5.1280
18

O      9.9596     -0.2852      3.3628
O      6.9692      0.8240      7.0897
O      7.0276      0.6107      3.2987
H      8.8483      0.1551      7.2313
H      7.1677      1.2336      7.8316
H      9.4910      1.4044      4.6425
H      3.8080      3.8151      5.1525
H      3.3064      2.4789      4.6520
H      7.4268      2.5845      7.0046
N      3.8625      2.9468      5.3946
C      9.2732     -0.6051      4.7532
C      5.0830      2.3937      4.8390
C      7.7396      1.4008      4.1942
C      8.6868      0.5911      5.1129
C      6.2333      2.9552      5.1044
C      8.2368      2.4376      6.2406
C      8.3771      1.0405      6.4125
C      7.4912      2.4587      5.1087
18

O      9.9606     -0.2913      3.3706
O      6.9659      0.8121      7.0874
O      7.0364      0.6000      3.2890
H      8.8533      0.1563      7.2383
H      7.2049      1.2610      7.8758
H      9.4426      1.4170      4.6581
H      3.7445      3.8150      5.1902
H      3.3607      2.5043      4.6943
H      7.4677      2.5079      7.0034
N      3.8639      2.9403      5.3895
C      9.2896     -0.6228      4.7744
C      5.0566      2.4160      4.8439
C      7.7423      1.3957      4.1746
C      8.6943      0.6071      5.0882
C      6.2410      2.9580      5.0811
C      8.2102      2.4283      6.2359
C      8.3905      1.0322      6.4088
C      7.4980      2.4515      5.0844
18

O      9.9598     -0.2988      3.3792
O      6.9629      0.7998      7.0836
O      7.0468      0.5917      3.2797
H      8.8609      0.1787      7.2328
H      7.2433      1.2969      7.9481
H      9.3909      1.4166      4.6866
H      3.6771      3.8848      5.2183
H      3.3833      2.5144      4.7236
H      7.5101      2.4600      7.0126
N      3.8681      2.9318      5.3853
C      9.3078     -0.6448      4.7951
C      5.0322      2.4394      4.8475
C      7.7444      1.3861      4.1551
C      8.7013      0.6240      5.0603
C      6.2459      2.9621      5.0575
C      8.1827      2.4206      6.2356
C      8.4051      1.0199      6.4085
C      7.5029      2.4438      5.0553
18

O      9.9578     -0.3078      3.3882
O      6.9609      0.7879      7.0806
O      7.0588      0.5857      3.2710
H      8.8714      0.2212      7.2149
H      7.2729      1.3224      8.0174
H      9.3447      1.4110      4.7217
H      3.6112      3.9810      5.2448
H      3.3604      2.4984      4.7251
H      7.5425      2.4444      7.0415
N      3.8738      2.9264      5.3803
C      9.3271     -0.6701      4.8154
C      5.0116      2.4640      4.8489
C      7.7458      1.3716      4.1359
C      8.7076      0.6398      5.0305
C      6.2475      2.9676      5.0336
C      8.1558      2.4137      6.2383
C      8.4206      1.0045      6.4106
C      7.5056      2.4362      5.0225
18

O      9.9550     -0.3185      3.3973
O      6.9601      0.7765      7.0792
O      7.0723      0.5821      3.2628
H      8.8864      0.2807      7.1871
H      7.2889      1.3290      8.0706
H      9.3174      1.4132      4.7552
H      3.5539      4.0660      5.2740
H      3.2967      2.4627      4.7064
H      7.5589      2.4618      7.0938
N      3.8787      2.9275      5.3712
C      9.3470     -0.6976      4.8351
C      4.9965      2.4893      4.8473
C      7.7463      1.3520      4.1169
C      8.7131      0.6524      5.0006
C      6.2458      2.9743      5.0095
C      8.1303      2.4073      6.2425
C      8.4363      0.9872      6.4139
C      7.5063      2.4292      4.9870
18

O      9.9520     -0.3307      3.4065
O      6.9605      0.7655      7.0797
O      7.0872      0.5808      3.2552
H      8.9110      0.3510      7.1555
H      7.2895      1.3139      8.1034
H      9.3205      1.4349      4.7810
H      3.5086      4.1235      5.3061
H      3.2113      2.4237      4.6879
H      7.5623      2.5101      7.1623
N      3.8804      2.9353      5.3571
C      9.3670     -0.7262      4.8536
C      4.9881      2.5145      4.8423
C      7.7458      1.3275      4.0980
C      8.7175      0.6595      4.9720
C      6.2409      2.9821      4.9853
C      8.1064      2.4007      6.2476
C      8.4515      0.9696      6.4169
C      7.5051      2.4232      4.9502
18

O      9.9492     -0.3444      3.4158
O      6.9620      0.7547      7.0821
O      7.1031      0.5815      3.2479
H      8.9546      0.4232      7.1308
H      7.2747      1.2768      8.1148
H      9.3545      1.4750      4.7981
H      3.4768      4.1488      5.3393
H      3.1213      2.3943      4.6842
H      7.5613      2.5826      7.2312
N      3.8778      2.9491      5.3408
C      9.3861     -0.7544      4.8692
C      4.9869      2.5389      4.8334
C      7.7443      1.2985      4.0794
C      8.7213      0.6605      4.9462
C      6.2331      2.9905      4.9609
C      8.0839      2.3939      6.2533
C      8.4646      0.9535      6.4180
C      7.5022      2.4188      4.9134
18

O      9.9471     -0.3590      3.4253
O      6.9649      0.7436      7.0863
O      7.1195      0.5838      3.2405
H      9.0268      0.4883      7.1252
H      7.2457      1.2188      8.1047
H      9.4087      1.5187      4.8095
H      3.4595      4.1407      5.3713
H      3.0401      2.3812      4.6992
H      7.5642      2.6701      7.2857
N      3.8703      2.9679      5.3249
C      9.4023     -0.7804      4.8778
C      4.9924      2.5619      4.8212
C      7.7419      1.2659      4.0614
C      8.7258      0.6559      4.9239
C      6.2233      2.9990      4.9361
C      8.0625      2.3866      6.2596
C      8.4744      0.9405      6.4161
C      7.4980      2.4163      4.8777
18

O      9.9458     -0.3734      3.4359
O      6.9690      0.7321      7.0921
O      7.1357      0.5868      3.2325
H      9.1275      0.5444      7.1413
H      7.2051      1.1430      8.0747
H      9.4692      1.5492      4.8169
H      3.4576      4.0999      5.3991
H      2.9787      2.3867      4.7325
H      7.5754      2.7628      7.3163
N      3.8579      2.9912      5.3108
C      9.4123     -0.8024      4.8749
C      5.0026      2.5836      4.8062
C      7.7388      1.2312      4.0449
C      8.7325      0.6471      4.9061
C      6.2125      3.0071      4.9111
C      8.0422      2.3790      6.2659
C      8.4803      0.9312      6.4107
C      7.4927      2.4157      4.8441
18

O      9.9449     -0.3860      3.4484
O      6.9745      0.7194      7.0992
O      7.1508      0.5897      3.2227
H      9.2436      0.5983      7.1665
H      7.1570      1.0555      8.0316
H      9.5230      1.5553      4.8196
H      3.4708      4.0322      5.4193
H      2.9436      2.4120      4.7822
H      7.5964      2.8519      7.3184
N      3.8412      3.0185      5.2986
C      9.4165     -0.8206      4.8615
C      5.0149      2.6035      4.7894
C      7.7361      1.1964      4.0316
C      8.7420      0.6349      4.8932
C      6.2021      3.0146      4.8856
C      8.0230      2.3714      6.2717
C      8.4828      0.9253      6.4032
C      7.4864      2.4167      4.8134
18

O      9.9417     -0.2748      3.3500
O      6.9794      0.8524      7.0760
O      7.0113      0.6570      3.3283
H      8.8605      0.2793      7.1556
H      7.1035      1.2966      8.0181
H      9.5734      1.2647      4.7015
H      3.9893      4.0797      5.0153
H      3.1062      2.4456      4.6039
H      7.4107      2.9087      7.0090
N      3.8707      2.9498      5.4036
C      9.2399     -0.5838      4.6865
C      5.1542      2.3338      4.8229
C      7.7273      1.3927      4.2539
C      8.6585      0.5624      5.1610
C      6.2024      2.9532      5.1696
C      8.2983      2.4769      6.2869
C      8.3445      1.0397      6.4511
C      7.4649      2.4740      5.1518
18

O      9.9504     -0.2770      3.3520
O      6.9758      0.8432      7.0826
O      7.0151      0.6391      3.3185
H      8.8494      0.2172      7.1869
H      7.1229      1.2643      7.9284
H      9.5591      1.3274      4.6633
H      3.9297      3.9875      5.0546
H      3.1670      2.4420      4.5989
H      7.3928      2.7931      7.0100
N      3.8664      2.9496      5.4034
C      9.2480     -0.5857      4.7093
C      5.1339      2.3529      4.8283
C      7.7321      1.3990      4.2339
C      8.6691      0.5677      5.1498
C      6.2129      2.9527      5.1487
C      8.2819      2.4619      6.2663
C      8.3541      1.0439      6.4333
C      7.4739      2.4703      5.1422
18

O      9.9563     -0.2805      3.3564
O      6.9725      0.8342      7.0880
O      7.0205      0.6237      3.3086
H      8.8465      0.1756      7.2133
H      7.1413      1.2359      7.8515
H      9.5309      1.3747      4.6437
H      3.8690      3.8870      5.1037
H      3.2373      2.4546      4.6165
H      7.3993      2.6824      7.0082
N      3.8636      2.9493      5.3999
C      9.2592     -0.5927      4.7315
C      5.1095      2.3727      4.8336
C      7.7362      1.4018      4.2140
C      8.6785      0.5776      5.1337
C      6.2236      2.9534      5.1270
C      8.2611      2.4487      6.2507
C      8.3650      1.0443      6.4205
C      7.4829      2.4651      5.1280
18

O      9.9596     -0.2852      3.3628
O      6.9692      0.8240      7.0897
O      7.0276      0.6107      3.2987
H      8.8483      0.1551      7.2313
H      7.1677      1.2336      7.8316
H      9.4910      1.4044      4.6425
H      3.8080      3.8151      5.1525
H      3.3064      2.4789      4.6520
H      7.4268      2.5845      7.0046
N      3.8625      2.9468      5.3946
C      9.2732     -0.6051      4.7532
C      5.0830      2.3937      4.8390
C      7.7396      1.4008      4.1942
C      8.6868      0.5911      5.1129
C      6.2333      2.9552      5.1044
C      8.2368      2.4376      6.2406
C      8.3771      1.0405      6.4125
C      7.4912      2.4587      5.1087
18

O      9.9606     -0.2913      3.3706
O      6.9659      0.8121      7.0874
O      7.0364      0.6000      3.2890
H      8.8533      0.1563      7.2383
H      7.2049      1.2610      7.8758
H      9.4426      1.4170      4.6581
H      3.7445      3.8150      5.1902
H      3.3607      2.5043      4.6943
H      7.4677      2.5079      7.0034
N      3.8639      2.9403      5.3895
C      9.2896     -0.6228      4.7744
C      5.0566      2.4160      4.8439
C      7.7423      1.3957      4.1746
C      8.6943      0.6071      5.0882
C      6.2410      2.9580      5.0811
C      8.2102      2.4283      6.2359
C      8.3905      1.0322      6.4088
C      7.4980      2.4515      5.0844
18

O      9.9598     -0.2988      3.3792
O      6.9629      0.7998      7.0836
O      7.0468      0.5917      3.2797
H      8.8609      0.1787      7.2328
H      7.2433      1.2969      7.9481
H      9.3909      1.4166      4.6866
H      3.6771      3.8848      5.2183
H      3.3833      2.5144      4.7236
H      7.5101      2.4600      7.0126
N      3.8681      2.9318      5.3853
C      9.3078     -0.6448      4.7951
C      5.0322      2.4394      4.8475
C      7.7444      1.3861      4.1551
C      8.7013      0.6240      5.0603
C      6.2459      2.9621      5.0575
C      8.1827      2.4206      6.2356
C      8.4051      1.0199      6.4085
C      7.5029      2.4438      5.0553
18

O      9.9578     -0.3078      3.3882
O      6.9609      0.7879      7.0806
O      7.0588      0.5857      3.2710
H      8.8714      0.2212      7.2149
H      7.2729      1.3224      8.0174
H      9.3447      1.4110      4.7217
H      3.6112      3.9810      5.2448
H      3.3604      2.4984      4.7251
H      7.5425      2.4444      7.0415
N      3.8738      2.9264      5.3803
C      9.3271     -0.6701      4.8154
C      5.0116      2.4640      4.8489
C      7.7458      1.3716      4.1359
C      8.7076      0.6398      5.0305
C      6.2475      2.9676      5.0336
C      8.1558      2.4137      6.2383
C      8.4206      1.0045      6.4106
C      7.5056      2.4362      5.0225
18

O      9.9550     -0.3185      3.3973
O      6.9601      0.7765      7.0792
O      7.0723      0.5821      3.2628
H      8.8864      0.2807      7.1871
H      7.2889      1.3290      8.0706
H      9.3174      1.4132      4.7552
H      3.5539      4.0660      5.2740
H      3.2967      2.4627      4.7064
H      7.5589      2.4618      7.0938
N      3.8787      2.9275      5.3712
C      9.3470     -0.6976      4.8351
C      4.9965      2.4893      4.8473
C      7.7463      1.3520      4.1169
C      8.7131      0.6524      5.0006
C      6.2458      2.9743      5.0095
C      8.1303      2.4073      6.2425
C      8.4363      0.9872      6.4139
C      7.5063      2.4292      4.9870
18

O      9.9520     -0.3307      3.4065
O      6.9605      0.7655      7.0797
O      7.0872      0.5808      3.2552
H      8.9110      0.3510      7.1555
H      7.2895      1.3139      8.1034
H      9.3205      1.4349      4.7810
H      3.5086      4.1235      5.3061
H      3.2113      2.4237      4.6879
H      7.5623      2.5101      7.1623
N      3.8804      2.9353      5.3571
C      9.3670     -0.7262      4.8536
C      4.9881      2.5145      4.8423
C      7.7458      1.3275      4.0980
C      8.7175      0.6595      4.9720
C      6.2409      2.9821      4.9853
C      8.1064      2.4007      6.2476
C      8.4515      0.9696      6.4169
C      7.5051      2.4232      4.9502
18

O      9.9492     -0.3444      3.4158
O      6.9620      0.7547      7.0821
O      7.1031      0.5815      3.2479
H      8.9546      0.4232      7.1308
H      7.2747      1.2768      8.1148
H      9.3545      1.4750      4.7981
H      3.4768      4.1488      5.3393
H      3.1213      2.3943      4.6842
H      7.5613      2.5826      7.2312
N      3.8778      2.9491      5.3408
C      9.3861     -0.7544      4.8692
C      4.9869      2.5389      4.8334
C      7.7443      1.2985      4.0794
C      8.7213      0.6605      4.9462
C      6.2331      2.9905      4.9609
C      8.0839      2.3939      6.2533
C      8.4646      0.9535      6.4180
C      7.5022      2.4188      4.9134
18

O      9.9471     -0.3590      3.4253
O      6.9649      0.7436      7.0863
O      7.1195      0.5838      3.2405
H      9.0268      0.4883      7.1252
H      7.2457      1.2188      8.1047
H      9.4087      1.5187      4.8095
H      3.4595      4.1407      5.3713
H      3.0401      2.3812      4.6992
H      7.5642      2.6701      7.2857
N      3.8703      2.9679      5.3249
C      9.4023     -0.7804      4.8778
C      4.9924      2.5619      4.8212
C      7.7419      1.2659      4.0614
C      8.7258      0.6559      4.9239
C      6.2233      2.9990      4.9361
C      8.0625      2.3866      6.2596
C      8.4744      0.9405      6.4161
C      7.4980      2.4163      4.8777
18

O      9.9458     -0.3734      3.4359
O      6.9690      0.7321      7.0921
O      7.1357      0.5868      3.2325
H      9.1275      0.5444      7.1413
H      7.2051      1.1430      8.0747
H      9.4692      1.5492      4.8169
H      3.4576      4.0999      5.3991
H      2.9787      2.3867      4.7325
H      7.5754      2.7628      7.3163
N      3.8579      2.9912      5.3108
C      9.4123     -0.8024      4.8749
C      5.0026      2.5836      4.8062
C      7.7388      1.2312      4.0449
C      8.7325      0.6471      4.9061
C      6.2125      3.0071      4.9111
C      8.0422      2.3790      6.2659
C      8.4803      0.9312      6.4107
C      7.4927      2.4157      4.8441
18

O      9.9449     -0.3860      3.4484
O      6.9745      0.7194      7.0992
O      7.1508      0.5897      3.2227
H      9.2436      0.5983      7.1665
H      7.1570      1.0555      8.0316
H      9.5230      1.5553      4.8196
H      3.4708      4.0322      5.4193
H      2.9436      2.4120      4.7822
H      7.5964      2.8519      7.3184
N      3.8412      3.0185      5.2986
C      9.4165     -0.8206      4.8615
C      5.0149      2.6035      4.7894
C      7.7361      1.1964      4.0316
C      8.7420      0.6349      4.8932
C      6.2021      3.0146      4.8856
C      8.0230      2.3714      6.2717
C      8.4828      0.9253      6.4032
C      7.4864      2.4167      4.8134
