13

O      1.8049      7.9764      3.0514
O      2.3516      4.1698      4.3164
O      1.9699      6.2234      1.6394
H      3.4409      6.7642      4.4499
H      4.5633      4.5882      1.9459
H      2.2278      5.1231      5.0381
H      1.5658      7.0066      1.1698
H      3.3745      3.1573      2.1219
H      2.0428      8.6415      3.6386
N      3.7930      3.9223      2.5728
N      3.0905      6.2461      3.5428
C      2.2837      6.7894      2.7872
C      2.9973      4.6738      3.3141
13

O      1.7787      7.9602      3.0371
O      2.3402      4.1699      4.3131
O      1.9705      6.1989      1.6748
H      3.4021      6.7629      4.4341
H      4.4983      4.6337      1.9575
H      2.2371      5.1692      5.0586
H      1.5187      7.0606      1.1279
H      3.4107      3.0381      2.0920
H      2.1610      8.6507      3.6540
N      3.8155      3.9462      2.5827
N      3.0829      6.2423      3.5451
C      2.2819      6.7844      2.7920
C      2.9884      4.6638      3.3161
13

O      1.7526      7.9451      3.0221
O      2.3292      4.1699      4.3121
O      1.9713      6.1781      1.7101
H      3.3629      6.7569      4.4150
H      4.4185      4.6598      1.9732
H      2.2558      5.2065      5.0806
H      1.4718      7.0935      1.0816
H      3.4573      2.9300      2.0760
H      2.2889      8.6465      3.6708
N      3.8374      3.9700      2.5897
N      3.0779      6.2349      3.5502
C      2.2783      6.7812      2.7933
C      2.9806      4.6554      3.3184
13

O      1.8049      7.9764      3.0514
O      2.3516      4.1698      4.3164
O      1.9699      6.2234      1.6394
H      3.4409      6.7642      4.4499
H      4.5633      4.5882      1.9459
H      2.2278      5.1231      5.0381
H      1.5658      7.0066      1.1698
H      3.3745      3.1573      2.1219
H      2.0428      8.6415      3.6386
N      3.7930      3.9223      2.5728
N      3.0905      6.2461      3.5428
C      2.2837      6.7894      2.7872
C      2.9973      4.6738      3.3141
13

O      1.7787      7.9602      3.0371
O      2.3402      4.1699      4.3131
O      1.9705      6.1989      1.6748
H      3.4021      6.7629      4.4341
H      4.4983      4.6337      1.9575
H      2.2371      5.1692      5.0586
H      1.5187      7.0606      1.1279
H      3.4107      3.0381      2.0920
H      2.1610      8.6507      3.6540
N      3.8155      3.9462      2.5827
N      3.0829      6.2423      3.5451
C      2.2819      6.7844      2.7920
C      2.9884      4.6638      3.3161
13

O      1.7526      7.9451      3.0221
O      2.3292      4.1699      4.3121
O      1.9713      6.1781      1.7101
H      3.3629      6.7569      4.4150
H      4.4185      4.6598      1.9732
H      2.2558      5.2065      5.0806
H      1.4718      7.0935      1.0816
H      3.4573      2.9300      2.0760
H      2.2889      8.6465      3.6708
N      3.8374      3.9700      2.5897
N      3.0779      6.2349      3.5502
C      2.2783      6.7812      2.7933
C      2.9806      4.6554      3.3184
