12

O      7.4790      6.4690      3.7816
O      9.7715      2.0545      2.6815
O      9.6466      3.7827      1.4824
H      7.2256      2.4230      2.5066
H      6.1004      6.4846      2.0101
H      7.9028      3.2856      3.8886
H      6.3975      4.4321      1.3717
H      8.7351      4.3589      1.4021
C      7.2217      4.6419      2.0837
C      9.0949      3.0889      2.4331
C      7.0255      5.7603      2.5889
C      7.7514      3.3728      2.8659
12

O      7.4912      6.4595      3.7663
O      9.7580      2.0332      2.7022
O      9.6264      3.7585      1.4973
H      7.2531      2.4474      2.4499
H      6.0196      6.5619      2.0922
H      7.8711      3.3381      3.9166
H      6.3311      4.4927      1.2986
H      8.7760      4.3419      1.4049
C      7.2136      4.6615      2.0879
C      9.0826      3.0621      2.4194
C      7.0444      5.7548      2.5988
C      7.7742      3.3524      2.8437
12

O      7.9104      6.3717      3.6853
O      9.3887      1.6453      2.9886
O      9.6745      3.0650      1.4447
H      6.9238      2.3887      2.0441
H      6.2245      6.2121      2.4894
H      7.2792      2.9024      3.5935
H      6.5388      4.8931      1.4778
H      9.3592      3.8378      0.7733
C      7.3818      4.4882      2.0502
C      8.9123      2.6265      2.3552
C      7.3188      5.4929      2.9408
C      7.5046      3.1873      2.5568
12

O      8.0167      6.3298      3.8650
O     10.3412      1.8270      2.4287
O      9.6556      3.3470      0.6889
H      7.0364      2.4451      1.3551
H      7.6558      4.1470      4.2090
H      8.7008      2.3081      2.9638
H      7.5370      4.5687      1.6720
H      8.8275      3.1597      0.0851
C      8.1164      4.1585      2.3307
C      9.3977      2.2684      1.5374
C      8.0086      4.9409      3.7184
C      7.9713      2.6445      2.1768
12

O      8.0073      6.3452      3.8820
O     10.3538      1.8212      2.4326
O      9.6757      3.3542      0.6969
H      6.9880      2.3381      1.4210
H      7.7110      4.1696      4.1924
H      8.6167      2.3078      2.9111
H      7.4901      4.6439      1.7448
H      8.7170      3.2362      0.0555
C      8.1292      4.1190      2.3443
C      9.4060      2.2835      1.5187
C      8.0078      4.9668      3.7215
C      7.9618      2.6700      2.1622
12

O      7.9963      6.3561      3.8979
O     10.3632      1.8160      2.4342
O      9.6967      3.3586      0.7044
H      6.9650      2.2395      1.5061
H      7.7549      4.1663      4.2233
H      8.5200      2.2970      2.8830
H      7.4281      4.7363      1.7938
H      8.6063      3.3256      0.0301
C      8.1415      4.0820      2.3614
C      9.4163      2.3005      1.5031
C      8.0085      4.9963      3.7193
C      7.9540      2.6963      2.1467
12

O      7.4790      6.4690      3.7816
O      9.7715      2.0545      2.6815
O      9.6466      3.7827      1.4824
H      7.2256      2.4230      2.5066
H      6.1004      6.4846      2.0101
H      7.9028      3.2856      3.8886
H      6.3975      4.4321      1.3717
H      8.7351      4.3589      1.4021
C      7.2217      4.6419      2.0837
C      9.0949      3.0889      2.4331
C      7.0255      5.7603      2.5889
C      7.7514      3.3728      2.8659
12

O      7.4912      6.4595      3.7663
O      9.7580      2.0332      2.7022
O      9.6264      3.7585      1.4973
H      7.2531      2.4474      2.4499
H      6.0196      6.5619      2.0922
H      7.8711      3.3381      3.9166
H      6.3311      4.4927      1.2986
H      8.7760      4.3419      1.4049
C      7.2136      4.6615      2.0879
C      9.0826      3.0621      2.4194
C      7.0444      5.7548      2.5988
C      7.7742      3.3524      2.8437
12

O      7.9104      6.3717      3.6853
O      9.3887      1.6453      2.9886
O      9.6745      3.0650      1.4447
H      6.9238      2.3887      2.0441
H      6.2245      6.2121      2.4894
H      7.2792      2.9024      3.5935
H      6.5388      4.8931      1.4778
H      9.3592      3.8378      0.7733
C      7.3818      4.4882      2.0502
C      8.9123      2.6265      2.3552
C      7.3188      5.4929      2.9408
C      7.5046      3.1873      2.5568
12

O      8.0167      6.3298      3.8650
O     10.3412      1.8270      2.4287
O      9.6556      3.3470      0.6889
H      7.0364      2.4451      1.3551
H      7.6558      4.1470      4.2090
H      8.7008      2.3081      2.9638
H      7.5370      4.5687      1.6720
H      8.8275      3.1597      0.0851
C      8.1164      4.1585      2.3307
C      9.3977      2.2684      1.5374
C      8.0086      4.9409      3.7184
C      7.9713      2.6445      2.1768
12

O      8.0073      6.3452      3.8820
O     10.3538      1.8212      2.4326
O      9.6757      3.3542      0.6969
H      6.9880      2.3381      1.4210
H      7.7110      4.1696      4.1924
H      8.6167      2.3078      2.9111
H      7.4901      4.6439      1.7448
H      8.7170      3.2362      0.0555
C      8.1292      4.1190      2.3443
C      9.4060      2.2835      1.5187
C      8.0078      4.9668      3.7215
C      7.9618      2.6700      2.1622
12

O      7.9963      6.3561      3.8979
O     10.3632      1.8160      2.4342
O      9.6967      3.3586      0.7044
H      6.9650      2.2395      1.5061
H      7.7549      4.1663      4.2233
H      8.5200      2.2970      2.8830
H      7.4281      4.7363      1.7938
H      8.6063      3.3256      0.0301
C      8.1415      4.0820      2.3614
C      9.4163      2.3005      1.5031
C      8.0085      4.9963      3.7193
C      7.9540      2.6963      2.1467
