16

O      5.3329      3.7177     10.3326
O      2.2330      0.0427      7.2475
O      3.6072      2.6504      9.3184
H      2.4284      1.6652      4.1547
H      3.9023     -0.5280      4.7017
H      3.5871      1.3979      9.0832
H      1.9171      0.1776      3.6339
H      4.4606      2.5426      6.6088
H      4.4203      3.8123     10.7643
N      5.8111      2.6984      8.3163
N      2.3922      0.7855      4.3866
N      4.3509      0.8589      7.6928
C      3.6706      0.4862      5.1600
C      4.8222      2.8883      9.3673
C      4.9658      1.9032      7.4624
C      3.3447      0.2093      6.5595
16

O      5.3341      3.7319     10.3592
O      2.2407      0.0364      7.2359
O      3.6152      2.6441      9.3286
H      2.3896      1.7092      4.1616
H      3.9189     -0.5588      4.6487
H      3.5447      1.4272      8.9998
H      1.9166      0.2127      3.6439
H      4.4221      2.5384      6.6525
H      4.3650      3.7702     10.7027
N      5.8111      2.6698      8.2976
N      2.3871      0.7887      4.3756
N      4.3590      0.8240      7.7028
C      3.6761      0.5069      5.1731
C      4.8229      2.9048      9.3664
C      4.9786      1.8846      7.4878
C      3.3386      0.2114      6.5587
16

O      5.3334      3.7448     10.3847
O      2.2511      0.0308      7.2222
O      3.6225      2.6362      9.3375
H      2.3423      1.7891      4.1581
H      3.9427     -0.5700      4.6096
H      3.5016      1.5025      8.9250
H      1.9346      0.2493      3.6565
H      4.3935      2.5292      6.7029
H      4.3167      3.7349     10.6494
N      5.8065      2.6405      8.2814
N      2.3847      0.7904      4.3673
N      4.3672      0.7866      7.7109
C      3.6817      0.5234      5.1852
C      4.8305      2.9243      9.3653
C      4.9922      1.8701      7.5096
C      3.3305      0.2137      6.5619
16

O      5.3304      3.7561     10.4088
O      2.2640      0.0258      7.2067
O      3.6292      2.6272      9.3447
H      2.2895      1.8692      4.1542
H      3.9693     -0.5593      4.5876
H      3.4617      1.6205      8.8613
H      1.9653      0.2777      3.6596
H      4.3746      2.5157      6.7599
H      4.2783      3.7096     10.6091
N      5.7980      2.6118      8.2687
N      2.3855      0.7935      4.3622
N      4.3760      0.7477      7.7167
C      3.6864      0.5349      5.1959
C      4.8449      2.9464      9.3641
C      5.0050      1.8583      7.5271
C      3.3210      0.2166      6.5688
16

O      5.3249      3.7656     10.4309
O      2.2790      0.0215      7.1894
O      3.6355      2.6176      9.3502
H      2.2367      1.9244      4.1570
H      3.9940     -0.5296      4.5832
H      3.4272      1.7740      8.8106
H      2.0030      0.2896      3.6418
H      4.3632      2.4997      6.8215
H      4.2512      3.6975     10.5867
N      5.7864      2.5850      8.2604
N      2.3896      0.8001      4.3609
N      4.3861      0.7081      7.7195
C      3.6888      0.5410      5.2048
C      4.8656      2.9705      9.3626
C      5.0150      1.8473      7.5395
C      3.3109      0.2206      6.5787
16

O      5.3170      3.7731     10.4509
O      2.2952      0.0176      7.1708
O      3.6420      2.6087      9.3542
H      2.1894      1.9441      4.1696
H      4.0112     -0.4867      4.5951
H      3.3958      1.9438      8.7662
H      2.0472      0.2843      3.6014
H      4.3550      2.4839      6.8831
H      4.2356      3.7003     10.5856
N      5.7731      2.5616      8.2578
N      2.3968      0.8107      4.3633
N      4.3983      0.6689      7.7189
C      3.6880      0.5419      5.2117
C      4.8919      2.9960      9.3607
C      5.0204      1.8350      7.5460
C      3.3016      0.2262      6.5907
16

O      5.3067      3.7786     10.4684
O      2.3115      0.0139      7.1515
O      3.6498      2.6028      9.3584
H      2.1516      1.9264      4.1930
H      4.0160     -0.4376      4.6206
H      3.3579      2.0968      8.7013
H      2.1019      0.2706      3.5497
H      4.3438      2.4709      6.9379
H      4.2306      3.7175     10.6064
N      5.7590      2.5426      8.2618
N      2.4063      0.8243      4.3689
N      4.4128      0.6310      7.7151
C      3.6843      0.5382      5.2167
C      4.9226      3.0221      9.3582
C      5.0196      1.8201      7.5466
C      3.2949      0.2337      6.6034
16

O      5.2944      3.7821     10.4834
O      2.3260      0.0100      7.1323
O      3.6599      2.6008      9.3644
H      2.1253      1.8760      4.2266
H      4.0054     -0.3907      4.6569
H      3.3058      2.2185      8.5922
H      2.1705      0.2609      3.5040
H      4.3248      2.4630      6.9806
H      4.2348      3.7464     10.6467
N      5.7450      2.5289      8.2723
N      2.4174      0.8396      4.3765
N      4.4302      0.5954      7.7085
C      3.6788      0.5306      5.2197
C      4.9566      3.0480      9.3551
C      5.0121      1.8020      7.5414
C      3.2935      0.2432      6.6151
16

O      5.2809      3.7837     10.4960
O      2.3369      0.0057      7.1140
O      3.6720      2.6011      9.3709
H      2.1092      1.8064      4.2684
H      3.9811     -0.3561      4.7000
H      3.2499      2.3299      8.4617
H      2.2523      0.2660      3.4791
H      4.2954      2.4603      7.0082
H      4.2459      3.7828     10.7025
N      5.7313      2.5204      8.2886
N      2.4298      0.8547      4.3854
N      4.4508      0.5625      7.6995
C      3.6726      0.5204      5.2209
C      4.9926      3.0729      9.3515
C      4.9984      1.7813      7.5315
C      3.2996      0.2546      6.6240
16

O      5.2666      3.7835     10.5062
O      2.3430      0.0007      7.0972
O      3.6848      2.6028      9.3757
H      2.0967      1.7432      4.3151
H      3.9503     -0.3478      4.7444
H      3.2063      2.4470      8.3473
H      2.3436      0.2921      3.4824
H      4.2563      2.4609      7.0208
H      4.2606      3.8227     10.7701
N      5.7179      2.5168      8.3092
N      2.4435      0.8674      4.3951
N      4.4745      0.5322      7.6883
C      3.6661      0.5094      5.2207
C      5.0292      3.0964      9.3477
C      4.9792      1.7594      7.5181
C      3.3146      0.2679      6.6293
16

O      5.2524      3.7818     10.5141
O      2.3444     -0.0050      7.0818
O      3.6978      2.6056      9.3780
H      2.0757      1.7151      4.3640
H      3.9218     -0.3778      4.7845
H      3.1842      2.5709      8.2706
H      2.4398      0.3398      3.5124
H      4.2109      2.4607      7.0206
H      4.2741      3.8634     10.8471
N      5.7048      2.5171      8.3326
N      2.4592      0.8756      4.4057
N      4.5008      0.5046      7.6747
C      3.6597      0.4994      5.2194
C      5.0650      3.1183      9.3439
C      4.9557      1.7382      7.5026
C      3.3382      0.2825      6.6311
16

O      5.2388      3.7786     10.5201
O      2.3421     -0.0110      7.0673
O      3.7106      2.6093      9.3774
H      2.0397      1.7312      4.4148
H      3.8996     -0.4463      4.8197
H      3.1871      2.6979      8.2409
H      2.5369      0.4024      3.5567
H      4.1643      2.4562      7.0115
H      4.2833      3.9018     10.9298
N      5.6920      2.5206      8.3570
N      2.4774      0.8789      4.4177
N      4.5291      0.4790      7.6585
C      3.6541      0.4912      5.2171
C      5.0987      3.1387      9.3407
C      4.9292      1.7193      7.4863
C      3.3687      0.2979      6.6303
16

O      5.2264      3.7743     10.5245
O      2.3381     -0.0168      7.0533
O      3.7229      2.6140      9.3739
H      1.9966      1.7700      4.4679
H      3.8821     -0.5379      4.8548
H      3.2157      2.8236      8.2619
H      2.6334      0.4675      3.5918
H      4.1224      2.4440      6.9984
H      4.2882      3.9344     11.0109
N      5.6798      2.5259      8.3803
N      2.4973      0.8791      4.4319
N      4.5582      0.4547      7.6397
C      3.6501      0.4844      5.2135
C      5.1286      3.1583      9.3392
C      4.9007      1.7045      7.4704
C      3.4036      0.3132      6.6282
16

O      5.2154      3.7692     10.5276
O      2.3339     -0.0218      7.0390
O      3.7344      2.6200      9.3676
H      1.9618      1.8005      4.5208
H      3.8655     -0.6315      4.8950
H      3.2679      2.9437      8.3325
H      2.7310      0.5255      3.5958
H      4.0882      2.4225      6.9840
H      4.2901      3.9582     11.0842
N      5.6688      2.5318      8.4009
N      2.5176      0.8785      4.4495
N      4.5874      0.4313      7.6184
C      3.6486      0.4776      5.2085
C      5.1536      3.1772      9.3403
C      4.8711      1.6946      7.4561
C      3.4404      0.3275      6.6260
16

O      5.2061      3.7633     10.5298
O      2.3310     -0.0257      7.0243
O      3.7447      2.6273      9.3588
H      1.9471      1.8030      4.5705
H      3.8480     -0.7115      4.9421
H      3.3386      3.0540      8.4464
H      2.8294      0.5756      3.5689
H      4.0625      2.3913      6.9698
H      4.2909      3.9720     11.1480
N      5.6597      2.5370      8.4175
N      2.5374      0.8780      4.4699
N      4.6157      0.4087      7.5946
C      3.6503      0.4700      5.2024
C      5.1730      3.1958      9.3452
C      4.8413      1.6898      7.4444
C      3.4767      0.3397      6.6245
16

O      5.1985      3.7571     10.5317
O      2.3302     -0.0281      7.0089
O      3.7539      2.6357      9.3482
H      1.9568      1.7727      4.6172
H      3.8298     -0.7700      4.9957
H      3.4184      3.1539      8.5883
H      2.9228      0.6235      3.5337
H      4.0445      2.3523      6.9567
H      4.2923      3.9752     11.2007
N      5.6529      2.5411      8.4293
N      2.5565      0.8773      4.4910
N      4.6430      0.3874      7.5685
C      3.6559      0.4611      5.1956
C      5.1865      3.2139      9.3542
C      4.8123      1.6895      7.4362
C      3.5111      0.3488      6.6238
16

O      5.1928      3.7506     10.5336
O      2.3319     -0.0288      6.9929
O      3.7623      2.6446      9.3374
H      1.9897      1.7138      4.6607
H      3.8117     -0.8031      5.0539
H      3.4908      3.2554      8.7296
H      3.0034      0.6729      3.5143
H      4.0315      2.3099      6.9438
H      4.2948      3.9673     11.2399
N      5.6486      2.5443      8.4360
N      2.5752      0.8757      4.5106
N      4.6692      0.3679      7.5403
C      3.6662      0.4505      5.1890
C      5.1942      3.2312      9.3670
C      4.7848      1.6930      7.4320
C      3.5424      0.3542      6.6241
16

O      5.1891      3.7441     10.5361
O      2.3365     -0.0278      6.9765
O      3.7705      2.6522      9.3279
H      2.0355      1.6430      4.7039
H      3.7942     -0.8098      5.1131
H      3.5404      3.3832      8.8434
H      3.0648      0.7238      3.5242
H      4.0188      2.2697      6.9290
H      4.2989      3.9487     11.2636
N      5.6466      2.5472      8.4375
N      2.5943      0.8724      4.5271
N      4.6944      0.3507      7.5106
C      3.6817      0.4384      5.1832
C      5.1967      3.2467      9.3828
C      4.7599      1.6991      7.4323
C      3.5699      0.3555      6.6250
16

O      5.1873      3.7375     10.5395
O      2.3440     -0.0254      6.9599
O      3.7780      2.6584      9.3194
H      2.0762      1.5871      4.7530
H      3.7787     -0.7917      5.1689
H      3.5689      3.5383      8.9353
H      3.1046      0.7749      3.5666
H      4.0018      2.2377      6.9094
H      4.3053      3.9200     11.2718
N      5.6467      2.5507      8.4343
N      2.6149      0.8661      4.5394
N      4.7186      0.3363      7.4799
C      3.7026      0.4248      5.1791
C      5.1945      3.2592      9.3997
C      4.7385      1.7067      7.4375
C      3.5930      0.3525      6.6264
16

O      5.1872      3.7308     10.5446
O      2.3545     -0.0216      6.9431
O      3.7841      2.6652      9.3107
H      2.0976      1.5654      4.8145
H      3.7666     -0.7531      5.2162
H      3.5857      3.6880      9.0258
H      3.1239      0.8245      3.6359
H      3.9787      2.2168      6.8841
H      4.3150      3.8824     11.2659
N      5.6487      2.5553      8.4266
N      2.6374      0.8560      4.5472
N      4.7417      0.3253      7.4489
C      3.7281      0.4099      5.1774
C      5.1882      3.2677      9.4163
C      4.7210      1.7149      7.4477
C      3.6116      0.3451      6.6279
16

O      5.1889      3.7238     10.5516
O      2.3678     -0.0168      6.9265
O      3.7881      2.6744      9.3013
H      2.1031      1.5733      4.8886
H      3.7603     -0.7015      5.2515
H      3.5956      3.8022      9.1230
H      3.1308      0.8720      3.7145
H      3.9522      2.2061      6.8559
H      4.3284      3.8369     11.2471
N      5.6523      2.5619      8.4150
N      2.6603      0.8432      4.5516
N      4.7637      0.3180      7.4185
C      3.7558      0.3932      5.1791
C      5.1783      3.2711      9.4308
C      4.7079      1.7232      7.4624
C      3.6252      0.3333      6.6291
16

O      5.1922      3.7161     10.5610
O      2.3838     -0.0112      6.9103
O      3.7901      2.6869      9.2915
H      2.1089      1.5887      4.9678
H      3.7637     -0.6520      5.2744
H      3.5997      3.8660      9.2248
H      3.1412      0.9198      3.7724
H      3.9287      2.2021      6.8307
H      4.3453      3.7847     11.2171
N      5.6570      2.5706      8.4000
N      2.6802      0.8292      4.5551
N      4.7843      0.3147      7.3896
C      3.7811      0.3726      5.1860
C      5.1652      3.2689      9.4419
C      4.6989      1.7314      7.4813
C      3.6337      0.3174      6.6295
16

O      5.1970      3.7071     10.5725
O      2.4022     -0.0049      6.8947
O      3.7902      2.7029      9.2814
H      2.1298      1.5913      5.0424
H      3.7809     -0.6305      5.2857
H      3.5977      3.8764      9.3275
H      3.1699      0.9729      3.7851
H      3.9144      2.2015      6.8144
H      4.3639      3.7267     11.1790
N      5.6625      2.5817      8.3820
N      2.6945      0.8152      4.5603
N      4.8034      0.3156      7.3628
C      3.8023      0.3482      5.1980
C      5.1491      3.2607      9.4489
C      4.6938      1.7396      7.5035
C      3.6373      0.2978      6.6288
16

O      5.2034      3.6961     10.5857
O      2.4223      0.0018      6.8802
O      3.7889      2.7225      9.2716
H      2.1719      1.5718      5.1058
H      3.8131     -0.6596      5.2859
H      3.5887      3.8380      9.4277
H      3.2154      1.0337      3.7580
H      3.9135      2.2022      6.8113
H      4.3806      3.6639     11.1381
N      5.6684      2.5949      8.3618
N      2.7027      0.8018      4.5674
N      4.8206      0.3210      7.3387
C      3.8224      0.3254      5.2127
C      5.1304      3.2467      9.4511
C      4.6925      1.7476      7.5282
C      3.6368      0.2752      6.6270
16

O      5.2114      3.6826     10.5995
O      2.4433      0.0085      6.8671
O      3.7861      2.7450      9.2622
H      2.2333      1.5312      5.1562
H      3.8591     -0.7360      5.2740
H      3.5716      3.7586      9.5225
H      3.2618      1.0970      3.7175
H      3.9274      2.2036      6.8229
H      4.3898      3.5966     11.1020
N      5.6740      2.6101      8.3399
N      2.7068      0.7890      4.5751
N      4.8359      0.3309      7.3181
C      3.8433      0.3076      5.2276
C      5.1094      3.2273      9.4487
C      4.6951      1.7551      7.5547
C      3.6332      0.2501      6.6239
16

O      5.2209      3.6657     10.6132
O      2.4639      0.0150      6.8560
O      3.7823      2.7696      9.2535
H      2.3060      1.4782      5.1963
H      3.9146     -0.8305      5.2476
H      3.5432      3.6525      9.6126
H      3.2938      1.1564      3.6847
H      3.9545      2.2066      6.8485
H      4.3872      3.5247     11.0767
N      5.6789      2.6269      8.3170
N      2.7095      0.7768      4.5820
N      4.8489      0.3454      7.3014
C      3.8654      0.2942      5.2413
C      5.0869      3.2033      9.4416
C      4.7016      1.7619      7.5821
C      3.6284      0.2232      6.6197
16

O      5.2311      3.6448     10.6258
O      2.4827      0.0209      6.8473
O      3.7779      2.7944      9.2451
H      2.3794      1.4266      5.2332
H      3.9750     -0.9170      5.2058
H      3.4983      3.5446      9.7061
H      3.3046      1.2067      3.6703
H      3.9905      2.2129      6.8853
H      4.3746      3.4486     11.0627
N      5.6829      2.6448      8.2938
N      2.7132      0.7650      4.5872
N      4.8594      0.3644      7.2890
C      3.8885      0.2834      5.2524
C      5.0636      3.1761      9.4303
C      4.7120      1.7673      7.6097
C      3.6250      0.1954      6.6144
16

O      5.2410      3.6191     10.6370
O      2.4979      0.0262      6.8416
O      3.7731      2.8176      9.2361
H      2.4437      1.3895      5.2756
H      4.0357     -0.9815      5.1498
H      3.4311      3.4587      9.8179
H      3.2935      1.2445      3.6792
H      4.0285      2.2249      6.9289
H      4.3603      3.3695     11.0564
N      5.6856      2.6632      8.2711
N      2.7194      0.7532      4.5902
N      4.8674      0.3878      7.2812
C      3.9124      0.2740      5.2596
C      5.0404      3.1468      9.4153
C      4.7261      1.7708      7.6364
C      3.6254      0.1675      6.6081
16

O      5.2495      3.5882     10.6464
O      2.5083      0.0308      6.8391
O      3.7679      2.8392      9.2263
H      2.4944      1.3714      5.3260
H      4.0913     -1.0163      5.0838
H      3.3450      3.3934      9.9505
H      3.2624      1.2677      3.7128
H      4.0607      2.2452      6.9743
H      4.3547      3.2900     11.0538
N      5.6871      2.6817      8.2496
N      2.7291      0.7418      4.5910
N      4.8729      0.4153      7.2782
C      3.9368      0.2652      5.2622
C      5.0183      3.1170      9.3971
C      4.7439      1.7716      7.6616
C      3.6318      0.1402      6.6009
16

O      5.2560      3.5519     10.6538
O      2.5133      0.0348      6.8397
O      3.7611      2.8598      9.2165
H      2.5318      1.3667      5.3768
H      4.1369     -1.0183      5.0132
H      3.2519      3.3346     10.0877
H      3.2152      1.2759      3.7701
H      4.0807      2.2756      7.0177
H      4.3657      3.2131     11.0517
N      5.6877      2.6999      8.2298
N      2.7424      0.7315      4.5905
N      4.8759      0.4462      7.2799
C      3.9614      0.2563      5.2597
C      4.9982      3.0877      9.3766
C      4.7646      1.7695      7.6841
C      3.6452      0.1140      6.5929
16

O      5.2606      3.5103     10.6590
O      2.5135      0.0385      6.8430
O      3.7519      2.8797      9.2074
H      2.5576      1.3655      5.4162
H      4.1687     -0.9875      4.9426
H      3.1647      3.2778     10.2120
H      3.1595      1.2727      3.8430
H      4.0848      2.3152      7.0582
H      4.3958      3.1386     11.0494
N      5.6877      2.7175      8.2123
N      2.7590      0.7231      4.5903
N      4.8767      0.4798      7.2861
C      3.9856      0.2473      5.2526
C      4.9810      3.0600      9.3549
C      4.7874      1.7645      7.7030
C      3.6650      0.0895      6.5846
16

O      5.3329      3.7177     10.3326
O      2.2330      0.0427      7.2475
O      3.6072      2.6504      9.3184
H      2.4284      1.6652      4.1547
H      3.9023     -0.5280      4.7017
H      3.5871      1.3979      9.0832
H      1.9171      0.1776      3.6339
H      4.4606      2.5426      6.6088
H      4.4203      3.8123     10.7643
N      5.8111      2.6984      8.3163
N      2.3922      0.7855      4.3866
N      4.3509      0.8589      7.6928
C      3.6706      0.4862      5.1600
C      4.8222      2.8883      9.3673
C      4.9658      1.9032      7.4624
C      3.3447      0.2093      6.5595
16

O      5.3341      3.7319     10.3592
O      2.2407      0.0364      7.2359
O      3.6152      2.6441      9.3286
H      2.3896      1.7092      4.1616
H      3.9189     -0.5588      4.6487
H      3.5447      1.4272      8.9998
H      1.9166      0.2127      3.6439
H      4.4221      2.5384      6.6525
H      4.3650      3.7702     10.7027
N      5.8111      2.6698      8.2976
N      2.3871      0.7887      4.3756
N      4.3590      0.8240      7.7028
C      3.6761      0.5069      5.1731
C      4.8229      2.9048      9.3664
C      4.9786      1.8846      7.4878
C      3.3386      0.2114      6.5587
16

O      5.3334      3.7448     10.3847
O      2.2511      0.0308      7.2222
O      3.6225      2.6362      9.3375
H      2.3423      1.7891      4.1581
H      3.9427     -0.5700      4.6096
H      3.5016      1.5025      8.9250
H      1.9346      0.2493      3.6565
H      4.3935      2.5292      6.7029
H      4.3167      3.7349     10.6494
N      5.8065      2.6405      8.2814
N      2.3847      0.7904      4.3673
N      4.3672      0.7866      7.7109
C      3.6817      0.5234      5.1852
C      4.8305      2.9243      9.3653
C      4.9922      1.8701      7.5096
C      3.3305      0.2137      6.5619
16

O      5.3304      3.7561     10.4088
O      2.2640      0.0258      7.2067
O      3.6292      2.6272      9.3447
H      2.2895      1.8692      4.1542
H      3.9693     -0.5593      4.5876
H      3.4617      1.6205      8.8613
H      1.9653      0.2777      3.6596
H      4.3746      2.5157      6.7599
H      4.2783      3.7096     10.6091
N      5.7980      2.6118      8.2687
N      2.3855      0.7935      4.3622
N      4.3760      0.7477      7.7167
C      3.6864      0.5349      5.1959
C      4.8449      2.9464      9.3641
C      5.0050      1.8583      7.5271
C      3.3210      0.2166      6.5688
16

O      5.3249      3.7656     10.4309
O      2.2790      0.0215      7.1894
O      3.6355      2.6176      9.3502
H      2.2367      1.9244      4.1570
H      3.9940     -0.5296      4.5832
H      3.4272      1.7740      8.8106
H      2.0030      0.2896      3.6418
H      4.3632      2.4997      6.8215
H      4.2512      3.6975     10.5867
N      5.7864      2.5850      8.2604
N      2.3896      0.8001      4.3609
N      4.3861      0.7081      7.7195
C      3.6888      0.5410      5.2048
C      4.8656      2.9705      9.3626
C      5.0150      1.8473      7.5395
C      3.3109      0.2206      6.5787
16

O      5.3170      3.7731     10.4509
O      2.2952      0.0176      7.1708
O      3.6420      2.6087      9.3542
H      2.1894      1.9441      4.1696
H      4.0112     -0.4867      4.5951
H      3.3958      1.9438      8.7662
H      2.0472      0.2843      3.6014
H      4.3550      2.4839      6.8831
H      4.2356      3.7003     10.5856
N      5.7731      2.5616      8.2578
N      2.3968      0.8107      4.3633
N      4.3983      0.6689      7.7189
C      3.6880      0.5419      5.2117
C      4.8919      2.9960      9.3607
C      5.0204      1.8350      7.5460
C      3.3016      0.2262      6.5907
16

O      5.3067      3.7786     10.4684
O      2.3115      0.0139      7.1515
O      3.6498      2.6028      9.3584
H      2.1516      1.9264      4.1930
H      4.0160     -0.4376      4.6206
H      3.3579      2.0968      8.7013
H      2.1019      0.2706      3.5497
H      4.3438      2.4709      6.9379
H      4.2306      3.7175     10.6064
N      5.7590      2.5426      8.2618
N      2.4063      0.8243      4.3689
N      4.4128      0.6310      7.7151
C      3.6843      0.5382      5.2167
C      4.9226      3.0221      9.3582
C      5.0196      1.8201      7.5466
C      3.2949      0.2337      6.6034
16

O      5.2944      3.7821     10.4834
O      2.3260      0.0100      7.1323
O      3.6599      2.6008      9.3644
H      2.1253      1.8760      4.2266
H      4.0054     -0.3907      4.6569
H      3.3058      2.2185      8.5922
H      2.1705      0.2609      3.5040
H      4.3248      2.4630      6.9806
H      4.2348      3.7464     10.6467
N      5.7450      2.5289      8.2723
N      2.4174      0.8396      4.3765
N      4.4302      0.5954      7.7085
C      3.6788      0.5306      5.2197
C      4.9566      3.0480      9.3551
C      5.0121      1.8020      7.5414
C      3.2935      0.2432      6.6151
16

O      5.2809      3.7837     10.4960
O      2.3369      0.0057      7.1140
O      3.6720      2.6011      9.3709
H      2.1092      1.8064      4.2684
H      3.9811     -0.3561      4.7000
H      3.2499      2.3299      8.4617
H      2.2523      0.2660      3.4791
H      4.2954      2.4603      7.0082
H      4.2459      3.7828     10.7025
N      5.7313      2.5204      8.2886
N      2.4298      0.8547      4.3854
N      4.4508      0.5625      7.6995
C      3.6726      0.5204      5.2209
C      4.9926      3.0729      9.3515
C      4.9984      1.7813      7.5315
C      3.2996      0.2546      6.6240
16

O      5.2666      3.7835     10.5062
O      2.3430      0.0007      7.0972
O      3.6848      2.6028      9.3757
H      2.0967      1.7432      4.3151
H      3.9503     -0.3478      4.7444
H      3.2063      2.4470      8.3473
H      2.3436      0.2921      3.4824
H      4.2563      2.4609      7.0208
H      4.2606      3.8227     10.7701
N      5.7179      2.5168      8.3092
N      2.4435      0.8674      4.3951
N      4.4745      0.5322      7.6883
C      3.6661      0.5094      5.2207
C      5.0292      3.0964      9.3477
C      4.9792      1.7594      7.5181
C      3.3146      0.2679      6.6293
16

O      5.2524      3.7818     10.5141
O      2.3444     -0.0050      7.0818
O      3.6978      2.6056      9.3780
H      2.0757      1.7151      4.3640
H      3.9218     -0.3778      4.7845
H      3.1842      2.5709      8.2706
H      2.4398      0.3398      3.5124
H      4.2109      2.4607      7.0206
H      4.2741      3.8634     10.8471
N      5.7048      2.5171      8.3326
N      2.4592      0.8756      4.4057
N      4.5008      0.5046      7.6747
C      3.6597      0.4994      5.2194
C      5.0650      3.1183      9.3439
C      4.9557      1.7382      7.5026
C      3.3382      0.2825      6.6311
16

O      5.2388      3.7786     10.5201
O      2.3421     -0.0110      7.0673
O      3.7106      2.6093      9.3774
H      2.0397      1.7312      4.4148
H      3.8996     -0.4463      4.8197
H      3.1871      2.6979      8.2409
H      2.5369      0.4024      3.5567
H      4.1643      2.4562      7.0115
H      4.2833      3.9018     10.9298
N      5.6920      2.5206      8.3570
N      2.4774      0.8789      4.4177
N      4.5291      0.4790      7.6585
C      3.6541      0.4912      5.2171
C      5.0987      3.1387      9.3407
C      4.9292      1.7193      7.4863
C      3.3687      0.2979      6.6303
16

O      5.2264      3.7743     10.5245
O      2.3381     -0.0168      7.0533
O      3.7229      2.6140      9.3739
H      1.9966      1.7700      4.4679
H      3.8821     -0.5379      4.8548
H      3.2157      2.8236      8.2619
H      2.6334      0.4675      3.5918
H      4.1224      2.4440      6.9984
H      4.2882      3.9344     11.0109
N      5.6798      2.5259      8.3803
N      2.4973      0.8791      4.4319
N      4.5582      0.4547      7.6397
C      3.6501      0.4844      5.2135
C      5.1286      3.1583      9.3392
C      4.9007      1.7045      7.4704
C      3.4036      0.3132      6.6282
16

O      5.2154      3.7692     10.5276
O      2.3339     -0.0218      7.0390
O      3.7344      2.6200      9.3676
H      1.9618      1.8005      4.5208
H      3.8655     -0.6315      4.8950
H      3.2679      2.9437      8.3325
H      2.7310      0.5255      3.5958
H      4.0882      2.4225      6.9840
H      4.2901      3.9582     11.0842
N      5.6688      2.5318      8.4009
N      2.5176      0.8785      4.4495
N      4.5874      0.4313      7.6184
C      3.6486      0.4776      5.2085
C      5.1536      3.1772      9.3403
C      4.8711      1.6946      7.4561
C      3.4404      0.3275      6.6260
16

O      5.2061      3.7633     10.5298
O      2.3310     -0.0257      7.0243
O      3.7447      2.6273      9.3588
H      1.9471      1.8030      4.5705
H      3.8480     -0.7115      4.9421
H      3.3386      3.0540      8.4464
H      2.8294      0.5756      3.5689
H      4.0625      2.3913      6.9698
H      4.2909      3.9720     11.1480
N      5.6597      2.5370      8.4175
N      2.5374      0.8780      4.4699
N      4.6157      0.4087      7.5946
C      3.6503      0.4700      5.2024
C      5.1730      3.1958      9.3452
C      4.8413      1.6898      7.4444
C      3.4767      0.3397      6.6245
16

O      5.1985      3.7571     10.5317
O      2.3302     -0.0281      7.0089
O      3.7539      2.6357      9.3482
H      1.9568      1.7727      4.6172
H      3.8298     -0.7700      4.9957
H      3.4184      3.1539      8.5883
H      2.9228      0.6235      3.5337
H      4.0445      2.3523      6.9567
H      4.2923      3.9752     11.2007
N      5.6529      2.5411      8.4293
N      2.5565      0.8773      4.4910
N      4.6430      0.3874      7.5685
C      3.6559      0.4611      5.1956
C      5.1865      3.2139      9.3542
C      4.8123      1.6895      7.4362
C      3.5111      0.3488      6.6238
16

O      5.1928      3.7506     10.5336
O      2.3319     -0.0288      6.9929
O      3.7623      2.6446      9.3374
H      1.9897      1.7138      4.6607
H      3.8117     -0.8031      5.0539
H      3.4908      3.2554      8.7296
H      3.0034      0.6729      3.5143
H      4.0315      2.3099      6.9438
H      4.2948      3.9673     11.2399
N      5.6486      2.5443      8.4360
N      2.5752      0.8757      4.5106
N      4.6692      0.3679      7.5403
C      3.6662      0.4505      5.1890
C      5.1942      3.2312      9.3670
C      4.7848      1.6930      7.4320
C      3.5424      0.3542      6.6241
16

O      5.1891      3.7441     10.5361
O      2.3365     -0.0278      6.9765
O      3.7705      2.6522      9.3279
H      2.0355      1.6430      4.7039
H      3.7942     -0.8098      5.1131
H      3.5404      3.3832      8.8434
H      3.0648      0.7238      3.5242
H      4.0188      2.2697      6.9290
H      4.2989      3.9487     11.2636
N      5.6466      2.5472      8.4375
N      2.5943      0.8724      4.5271
N      4.6944      0.3507      7.5106
C      3.6817      0.4384      5.1832
C      5.1967      3.2467      9.3828
C      4.7599      1.6991      7.4323
C      3.5699      0.3555      6.6250
16

O      5.1873      3.7375     10.5395
O      2.3440     -0.0254      6.9599
O      3.7780      2.6584      9.3194
H      2.0762      1.5871      4.7530
H      3.7787     -0.7917      5.1689
H      3.5689      3.5383      8.9353
H      3.1046      0.7749      3.5666
H      4.0018      2.2377      6.9094
H      4.3053      3.9200     11.2718
N      5.6467      2.5507      8.4343
N      2.6149      0.8661      4.5394
N      4.7186      0.3363      7.4799
C      3.7026      0.4248      5.1791
C      5.1945      3.2592      9.3997
C      4.7385      1.7067      7.4375
C      3.5930      0.3525      6.6264
16

O      5.1872      3.7308     10.5446
O      2.3545     -0.0216      6.9431
O      3.7841      2.6652      9.3107
H      2.0976      1.5654      4.8145
H      3.7666     -0.7531      5.2162
H      3.5857      3.6880      9.0258
H      3.1239      0.8245      3.6359
H      3.9787      2.2168      6.8841
H      4.3150      3.8824     11.2659
N      5.6487      2.5553      8.4266
N      2.6374      0.8560      4.5472
N      4.7417      0.3253      7.4489
C      3.7281      0.4099      5.1774
C      5.1882      3.2677      9.4163
C      4.7210      1.7149      7.4477
C      3.6116      0.3451      6.6279
16

O      5.1889      3.7238     10.5516
O      2.3678     -0.0168      6.9265
O      3.7881      2.6744      9.3013
H      2.1031      1.5733      4.8886
H      3.7603     -0.7015      5.2515
H      3.5956      3.8022      9.1230
H      3.1308      0.8720      3.7145
H      3.9522      2.2061      6.8559
H      4.3284      3.8369     11.2471
N      5.6523      2.5619      8.4150
N      2.6603      0.8432      4.5516
N      4.7637      0.3180      7.4185
C      3.7558      0.3932      5.1791
C      5.1783      3.2711      9.4308
C      4.7079      1.7232      7.4624
C      3.6252      0.3333      6.6291
16

O      5.1922      3.7161     10.5610
O      2.3838     -0.0112      6.9103
O      3.7901      2.6869      9.2915
H      2.1089      1.5887      4.9678
H      3.7637     -0.6520      5.2744
H      3.5997      3.8660      9.2248
H      3.1412      0.9198      3.7724
H      3.9287      2.2021      6.8307
H      4.3453      3.7847     11.2171
N      5.6570      2.5706      8.4000
N      2.6802      0.8292      4.5551
N      4.7843      0.3147      7.3896
C      3.7811      0.3726      5.1860
C      5.1652      3.2689      9.4419
C      4.6989      1.7314      7.4813
C      3.6337      0.3174      6.6295
16

O      5.1970      3.7071     10.5725
O      2.4022     -0.0049      6.8947
O      3.7902      2.7029      9.2814
H      2.1298      1.5913      5.0424
H      3.7809     -0.6305      5.2857
H      3.5977      3.8764      9.3275
H      3.1699      0.9729      3.7851
H      3.9144      2.2015      6.8144
H      4.3639      3.7267     11.1790
N      5.6625      2.5817      8.3820
N      2.6945      0.8152      4.5603
N      4.8034      0.3156      7.3628
C      3.8023      0.3482      5.1980
C      5.1491      3.2607      9.4489
C      4.6938      1.7396      7.5035
C      3.6373      0.2978      6.6288
16

O      5.2034      3.6961     10.5857
O      2.4223      0.0018      6.8802
O      3.7889      2.7225      9.2716
H      2.1719      1.5718      5.1058
H      3.8131     -0.6596      5.2859
H      3.5887      3.8380      9.4277
H      3.2154      1.0337      3.7580
H      3.9135      2.2022      6.8113
H      4.3806      3.6639     11.1381
N      5.6684      2.5949      8.3618
N      2.7027      0.8018      4.5674
N      4.8206      0.3210      7.3387
C      3.8224      0.3254      5.2127
C      5.1304      3.2467      9.4511
C      4.6925      1.7476      7.5282
C      3.6368      0.2752      6.6270
16

O      5.2114      3.6826     10.5995
O      2.4433      0.0085      6.8671
O      3.7861      2.7450      9.2622
H      2.2333      1.5312      5.1562
H      3.8591     -0.7360      5.2740
H      3.5716      3.7586      9.5225
H      3.2618      1.0970      3.7175
H      3.9274      2.2036      6.8229
H      4.3898      3.5966     11.1020
N      5.6740      2.6101      8.3399
N      2.7068      0.7890      4.5751
N      4.8359      0.3309      7.3181
C      3.8433      0.3076      5.2276
C      5.1094      3.2273      9.4487
C      4.6951      1.7551      7.5547
C      3.6332      0.2501      6.6239
16

O      5.2209      3.6657     10.6132
O      2.4639      0.0150      6.8560
O      3.7823      2.7696      9.2535
H      2.3060      1.4782      5.1963
H      3.9146     -0.8305      5.2476
H      3.5432      3.6525      9.6126
H      3.2938      1.1564      3.6847
H      3.9545      2.2066      6.8485
H      4.3872      3.5247     11.0767
N      5.6789      2.6269      8.3170
N      2.7095      0.7768      4.5820
N      4.8489      0.3454      7.3014
C      3.8654      0.2942      5.2413
C      5.0869      3.2033      9.4416
C      4.7016      1.7619      7.5821
C      3.6284      0.2232      6.6197
16

O      5.2311      3.6448     10.6258
O      2.4827      0.0209      6.8473
O      3.7779      2.7944      9.2451
H      2.3794      1.4266      5.2332
H      3.9750     -0.9170      5.2058
H      3.4983      3.5446      9.7061
H      3.3046      1.2067      3.6703
H      3.9905      2.2129      6.8853
H      4.3746      3.4486     11.0627
N      5.6829      2.6448      8.2938
N      2.7132      0.7650      4.5872
N      4.8594      0.3644      7.2890
C      3.8885      0.2834      5.2524
C      5.0636      3.1761      9.4303
C      4.7120      1.7673      7.6097
C      3.6250      0.1954      6.6144
16

O      5.2410      3.6191     10.6370
O      2.4979      0.0262      6.8416
O      3.7731      2.8176      9.2361
H      2.4437      1.3895      5.2756
H      4.0357     -0.9815      5.1498
H      3.4311      3.4587      9.8179
H      3.2935      1.2445      3.6792
H      4.0285      2.2249      6.9289
H      4.3603      3.3695     11.0564
N      5.6856      2.6632      8.2711
N      2.7194      0.7532      4.5902
N      4.8674      0.3878      7.2812
C      3.9124      0.2740      5.2596
C      5.0404      3.1468      9.4153
C      4.7261      1.7708      7.6364
C      3.6254      0.1675      6.6081
16

O      5.2495      3.5882     10.6464
O      2.5083      0.0308      6.8391
O      3.7679      2.8392      9.2263
H      2.4944      1.3714      5.3260
H      4.0913     -1.0163      5.0838
H      3.3450      3.3934      9.9505
H      3.2624      1.2677      3.7128
H      4.0607      2.2452      6.9743
H      4.3547      3.2900     11.0538
N      5.6871      2.6817      8.2496
N      2.7291      0.7418      4.5910
N      4.8729      0.4153      7.2782
C      3.9368      0.2652      5.2622
C      5.0183      3.1170      9.3971
C      4.7439      1.7716      7.6616
C      3.6318      0.1402      6.6009
16

O      5.2560      3.5519     10.6538
O      2.5133      0.0348      6.8397
O      3.7611      2.8598      9.2165
H      2.5318      1.3667      5.3768
H      4.1369     -1.0183      5.0132
H      3.2519      3.3346     10.0877
H      3.2152      1.2759      3.7701
H      4.0807      2.2756      7.0177
H      4.3657      3.2131     11.0517
N      5.6877      2.6999      8.2298
N      2.7424      0.7315      4.5905
N      4.8759      0.4462      7.2799
C      3.9614      0.2563      5.2597
C      4.9982      3.0877      9.3766
C      4.7646      1.7695      7.6841
C      3.6452      0.1140      6.5929
16

O      5.2606      3.5103     10.6590
O      2.5135      0.0385      6.8430
O      3.7519      2.8797      9.2074
H      2.5576      1.3655      5.4162
H      4.1687     -0.9875      4.9426
H      3.1647      3.2778     10.2120
H      3.1595      1.2727      3.8430
H      4.0848      2.3152      7.0582
H      4.3958      3.1386     11.0494
N      5.6877      2.7175      8.2123
N      2.7590      0.7231      4.5903
N      4.8767      0.4798      7.2861
C      3.9856      0.2473      5.2526
C      4.9810      3.0600      9.3549
C      4.7874      1.7645      7.7030
C      3.6650      0.0895      6.5846
