20

O      9.9044     -1.5393      4.0716
O      8.3616     -0.1939      7.1165
O      8.2613     -0.0918      3.1182
H      9.2529      1.8630      7.3383
H      6.5057      2.2045      6.7703
H      7.9769     -0.2978      8.1270
H      8.8734      0.7216      2.8453
H      6.5233      0.6196      6.7384
H     10.2550     -0.7767      6.0020
H      9.7095      1.3292      4.1049
H      4.8387      3.3477      1.8977
N      4.9701      3.0800      2.8689
C      9.9874     -0.6956      5.0591
C      6.0394      2.5839      3.1380
C      7.7067      0.0178      4.5095
C      9.1615      0.6704      5.0025
C      6.7447      2.5707      4.4230
C      7.0777      1.3717      6.3602
C      8.7383      0.9899      6.4677
C      6.9509      1.2800      4.9036
20

O      9.8974     -1.5378      4.0675
O      8.3786     -0.1685      7.1099
O      8.2421     -0.0800      3.1225
H      9.2615      1.9390      7.3125
H      6.3929      2.2201      6.7577
H      8.0303     -0.2376      8.0861
H      8.8538      0.7639      2.8085
H      6.6108      0.5294      6.7361
H     10.2516     -0.7613      6.0369
H      9.6477      1.3701      4.1450
H      4.8339      3.4158      1.8879
N      4.9708      3.0785      2.8651
C      9.9826     -0.6935      5.0693
C      6.0267      2.5704      3.1382
C      7.6926      0.0205      4.4967
C      9.1365      0.6531      5.0086
C      6.7700      2.5538      4.4286
C      7.0677      1.3835      6.3357
C      8.7242      1.0005      6.4594
C      6.9379      1.2682      4.9041
20

O      9.8901     -1.5349      4.0643
O      8.3975     -0.1454      7.1054
O      8.2229     -0.0675      3.1255
H      9.2536      1.9898      7.2590
H      6.2966      2.2314      6.7426
H      8.0926     -0.1578      8.0255
H      8.8183      0.7865      2.7829
H      6.6864      0.4245      6.7440
H     10.2537     -0.7679      6.0943
H      9.5751      1.4054      4.2055
H      4.8235      3.4799      1.8744
N      4.9704      3.0785      2.8608
C      9.9752     -0.6883      5.0767
C      6.0160      2.5559      3.1419
C      7.6814      0.0295      4.4829
C      9.1139      0.6360      5.0146
C      6.7921      2.5352      4.4321
C      7.0582      1.3966      6.3117
C      8.7076      1.0147      6.4530
C      6.9243      1.2561      4.9045
20

O      9.8823     -1.5309      4.0619
O      8.4189     -0.1244      7.1019
O      8.2037     -0.0540      3.1270
H      9.2285      2.0131      7.1801
H      6.2226      2.2310      6.7236
H      8.1544     -0.0632      7.9710
H      8.7663      0.7864      2.7715
H      6.7523      0.3271      6.7527
H     10.2415     -0.7966      6.1495
H      9.4944      1.4329      4.2844
H      4.8126      3.5345      1.8674
N      4.9690      3.0803      2.8555
C      9.9660     -0.6803      5.0832
C      6.0072      2.5405      3.1488
C      7.6730      0.0436      4.4687
C      9.0938      0.6198      5.0207
C      6.8109      2.5160      4.4327
C      7.0483      1.4093      6.2905
C      8.6889      1.0330      6.4480
C      6.9100      1.2436      4.9040
20

O      9.8741     -1.5258      4.0603
O      8.4431     -0.1056      7.0976
O      8.1844     -0.0401      3.1270
H      9.1881      2.0098      7.0808
H      6.1738      2.2158      6.7006
H      8.2056      0.0442      7.9537
H      8.7005      0.7657      2.7745
H      6.8055      0.2524      6.7562
H     10.1979     -0.8474      6.1866
H      9.4103      1.4528      4.3761
H      4.8030      3.5756      1.8729
N      4.9672      3.0837      2.8491
C      9.9553     -0.6699      5.0900
C      6.0002      2.5244      3.1585
C      7.6677      0.0615      4.4550
C      9.0760      0.6050      5.0272
C      6.8260      2.4973      4.4299
C      7.0376      1.4201      6.2738
C      8.6684      1.0550      6.4437
C      6.8950      1.2306      4.9021
20

O      9.8653     -1.5201      4.0595
O      8.4700     -0.0890      7.0927
O      8.1649     -0.0264      3.1258
H      9.1368      1.9838      6.9680
H      6.1512      2.1857      6.6742
H      8.2444      0.1624      7.9807
H      8.6285      0.7344      2.7881
H      6.8418      0.2074      6.7519
H     10.1288     -0.9167      6.2021
H      9.3288      1.4691      4.4718
H      4.7959      3.6017      1.8933
N      4.9654      3.0885      2.8417
C      9.9436     -0.6573      5.0980
C      5.9949      2.5078      3.1705
C      7.6656      0.0820      4.4425
C      9.0600      0.5916      5.0345
C      6.8372      2.4798      4.4234
C      7.0262      1.4279      6.2628
C      8.6464      1.0801      6.4393
C      6.8792      1.2171      4.8983
20

O      9.8562     -1.5137      4.0592
O      8.4988     -0.0740      7.0891
O      8.1444     -0.0142      3.1238
H      9.0824      1.9460      6.8521
H      6.1540      2.1433      6.6459
H      8.2779      0.2819      8.0269
H      8.5650      0.7137      2.8028
H      6.8590      0.1950      6.7388
H     10.0455     -0.9987      6.1959
H      9.2566      1.4891      4.5609
H      4.7913      3.6138      1.9262
N      4.9642      3.0942      2.8340
C      9.9313     -0.6427      5.1076
C      5.9911      2.4909      3.1842
C      7.6667      0.1039      4.4317
C      9.0454      0.5799      5.0432
C      6.8440      2.4644      4.4132
C      7.0142      1.4319      6.2579
C      8.6226      1.1073      6.4337
C      6.8625      1.2035      4.8927
20

O      9.8468     -1.5068      4.0594
O      8.5285     -0.0598      7.0887
O      8.1222     -0.0051      3.1217
H      9.0402      1.9215      6.7493
H      6.1783      2.0939      6.6185
H      8.3124      0.3907      8.0670
H      8.5254      0.7282      2.8075
H      6.8566      0.2154      6.7176
H      9.9526     -1.0892      6.1692
H      9.1986      1.5189      4.6347
H      4.7882      3.6160      1.9649
N      4.9642      3.1001      2.8272
C      9.9189     -0.6270      5.1187
C      5.9882      2.4741      3.1988
C      7.6711      0.1258      4.4230
C      9.0314      0.5698      5.0533
C      6.8463      2.4514      4.3995
C      7.0018      1.4315      6.2588
C      8.5962      1.1338      6.4253
C      6.8450      1.1900      4.8854
20

O      9.8377     -1.4991      4.0602
O      8.5584     -0.0455      7.0926
O      8.0986      0.0008      3.1195
H      9.0293      1.9427      6.6754
H      6.2147      2.0474      6.5971
H      8.3503      0.4817      8.0903
H      8.5116      0.7806      2.7999
H      6.8358      0.2650      6.6910
H      9.8567     -1.1833      6.1247
H      9.1573      1.5580      4.6888
H      4.7851      3.6156      1.9983
N      4.9660      3.1054      2.8228
C      9.9064     -0.6109      5.1307
C      5.9856      2.4575      3.2135
C      7.6783      0.1465      4.4167
C      9.0176      0.5622      5.0644
C      6.8446      2.4409      4.3825
C      6.9900      1.4258      6.2648
C      8.5659      1.1563      6.4132
C      6.8266      1.1770      4.8771
20

O      9.8294     -1.4904      4.0614
O      8.5879     -0.0306      7.1010
O      8.0747      0.0049      3.1168
H      9.0519      2.0152      6.6319
H      6.2479      2.0185      6.5888
H      8.3915      0.5529      8.0952
H      8.5111      0.8472      2.7885
H      6.7987      0.3381      6.6629
H      9.7616     -1.2771      6.0662
H      9.1326      1.5991      4.7225
H      4.7804      3.6201      2.0153
N      4.9698      3.1093      2.8220
C      9.8942     -0.5952      5.1430
C      5.9827      2.4414      3.2275
C      7.6884      0.1650      4.4130
C      9.0036      0.5578      5.0759
C      6.8393      2.4324      4.3624
C      6.9796      1.4142      6.2740
C      8.5317      1.1739      6.3978
C      6.8072      1.1651      4.8686
20

O      9.8222     -1.4804      4.0628
O      8.6166     -0.0146      7.1137
O      8.0516      0.0088      3.1128
H      9.0877      2.1098      6.6100
H      6.2635      2.0209      6.5999
H      8.4348      0.6049      8.0837
H      8.5103      0.9025      2.7817
H      6.7469      0.4224      6.6391
H      9.6692     -1.3662      5.9982
H      9.1234      1.6317      4.7366
H      4.7737      3.6327      2.0120
N      4.9759      3.1114      2.8257
C      9.8832     -0.5805      5.1557
C      5.9786      2.4261      3.2398
C      7.7011      0.1804      4.4121
C      8.9890      0.5579      5.0870
C      6.8314      2.4254      4.3401
C      6.9718      1.3962      6.2848
C      8.4954      1.1885      6.3807
C      6.7870      1.1548      4.8605
20

O      9.8160     -1.4691      4.0639
O      8.6444      0.0026      7.1304
O      8.0303      0.0133      3.1075
H      9.1133      2.1970      6.6028
H      6.2611      2.0570      6.6297
H      8.4785      0.6391      8.0579
H      8.5018      0.9321      2.7831
H      6.6794      0.4941      6.6297
H      9.5800     -1.4444      5.9250
H      9.1275      1.6467      4.7319
H      4.7672      3.6496      1.9951
N      4.9841      3.1119      2.8336
C      9.8740     -0.5671      5.1687
C      5.9725      2.4121      3.2496
C      7.7160      0.1923      4.4138
C      8.9737      0.5630      5.0969
C      6.8218      2.4194      4.3167
C      6.9665      1.3741      6.2954
C      8.4591      1.2017      6.3635
C      6.7660      1.1460      4.8536
20

O      9.8106     -1.4567      4.0644
O      8.6711      0.0213      7.1502
O      8.0112      0.0189      3.1009
H      9.1152      2.2619      6.6079
H      6.2542      2.1149      6.6704
H      8.5210      0.6566      8.0204
H      8.4839      0.9307      2.7927
H      6.5911      0.5239      6.6466
H      9.4935     -1.5077      5.8519
H      9.1429      1.6378      4.7086
H      4.7643      3.6635      1.9777
N      4.9940      3.1113      2.8446
C      9.8672     -0.5554      5.1821
C      5.9638      2.3999      3.2559
C      7.7323      0.2004      4.4181
C      8.9577      0.5733      5.1052
C      6.8116      2.4137      4.2938
C      6.9625      1.3517      6.3045
C      8.4245      1.2144      6.3475
C      6.7445      1.1385      4.8483
20

O      9.8056     -1.4431      4.0638
O      8.6967      0.0414      7.1723
O      7.9946      0.0255      3.0933
H      9.0888      2.2978      6.6233
H      6.2570      2.1782      6.7123
H      8.5610      0.6599      7.9758
H      8.4583      0.8997      2.8081
H      6.4821      0.5057      6.6932
H      9.4091     -1.5549      5.7838
H      9.1685      1.6023      4.6670
H      4.7677      3.6683      1.9718
N      5.0053      3.1105      2.8574
C      9.8628     -0.5453      5.1960
C      5.9520      2.3900      3.2584
C      7.7489      0.2045      4.4243
C      8.9414      0.5883      5.1116
C      6.8021      2.4081      4.2729
C      6.9581      1.3314      6.3118
C      8.3928      1.2264      6.3339
C      6.7226      1.1318      4.8449
20

O      9.9044     -1.5393      4.0716
O      8.3616     -0.1939      7.1165
O      8.2613     -0.0918      3.1182
H      9.2529      1.8630      7.3383
H      6.5057      2.2045      6.7703
H      7.9769     -0.2978      8.1270
H      8.8734      0.7216      2.8453
H      6.5233      0.6196      6.7384
H     10.2550     -0.7767      6.0020
H      9.7095      1.3292      4.1049
H      4.8387      3.3477      1.8977
N      4.9701      3.0800      2.8689
C      9.9874     -0.6956      5.0591
C      6.0394      2.5839      3.1380
C      7.7067      0.0178      4.5095
C      9.1615      0.6704      5.0025
C      6.7447      2.5707      4.4230
C      7.0777      1.3717      6.3602
C      8.7383      0.9899      6.4677
C      6.9509      1.2800      4.9036
20

O      9.8974     -1.5378      4.0675
O      8.3786     -0.1685      7.1099
O      8.2421     -0.0800      3.1225
H      9.2615      1.9390      7.3125
H      6.3929      2.2201      6.7577
H      8.0303     -0.2376      8.0861
H      8.8538      0.7639      2.8085
H      6.6108      0.5294      6.7361
H     10.2516     -0.7613      6.0369
H      9.6477      1.3701      4.1450
H      4.8339      3.4158      1.8879
N      4.9708      3.0785      2.8651
C      9.9826     -0.6935      5.0693
C      6.0267      2.5704      3.1382
C      7.6926      0.0205      4.4967
C      9.1365      0.6531      5.0086
C      6.7700      2.5538      4.4286
C      7.0677      1.3835      6.3357
C      8.7242      1.0005      6.4594
C      6.9379      1.2682      4.9041
20

O      9.8901     -1.5349      4.0643
O      8.3975     -0.1454      7.1054
O      8.2229     -0.0675      3.1255
H      9.2536      1.9898      7.2590
H      6.2966      2.2314      6.7426
H      8.0926     -0.1578      8.0255
H      8.8183      0.7865      2.7829
H      6.6864      0.4245      6.7440
H     10.2537     -0.7679      6.0943
H      9.5751      1.4054      4.2055
H      4.8235      3.4799      1.8744
N      4.9704      3.0785      2.8608
C      9.9752     -0.6883      5.0767
C      6.0160      2.5559      3.1419
C      7.6814      0.0295      4.4829
C      9.1139      0.6360      5.0146
C      6.7921      2.5352      4.4321
C      7.0582      1.3966      6.3117
C      8.7076      1.0147      6.4530
C      6.9243      1.2561      4.9045
20

O      9.8823     -1.5309      4.0619
O      8.4189     -0.1244      7.1019
O      8.2037     -0.0540      3.1270
H      9.2285      2.0131      7.1801
H      6.2226      2.2310      6.7236
H      8.1544     -0.0632      7.9710
H      8.7663      0.7864      2.7715
H      6.7523      0.3271      6.7527
H     10.2415     -0.7966      6.1495
H      9.4944      1.4329      4.2844
H      4.8126      3.5345      1.8674
N      4.9690      3.0803      2.8555
C      9.9660     -0.6803      5.0832
C      6.0072      2.5405      3.1488
C      7.6730      0.0436      4.4687
C      9.0938      0.6198      5.0207
C      6.8109      2.5160      4.4327
C      7.0483      1.4093      6.2905
C      8.6889      1.0330      6.4480
C      6.9100      1.2436      4.9040
20

O      9.8741     -1.5258      4.0603
O      8.4431     -0.1056      7.0976
O      8.1844     -0.0401      3.1270
H      9.1881      2.0098      7.0808
H      6.1738      2.2158      6.7006
H      8.2056      0.0442      7.9537
H      8.7005      0.7657      2.7745
H      6.8055      0.2524      6.7562
H     10.1979     -0.8474      6.1866
H      9.4103      1.4528      4.3761
H      4.8030      3.5756      1.8729
N      4.9672      3.0837      2.8491
C      9.9553     -0.6699      5.0900
C      6.0002      2.5244      3.1585
C      7.6677      0.0615      4.4550
C      9.0760      0.6050      5.0272
C      6.8260      2.4973      4.4299
C      7.0376      1.4201      6.2738
C      8.6684      1.0550      6.4437
C      6.8950      1.2306      4.9021
20

O      9.8653     -1.5201      4.0595
O      8.4700     -0.0890      7.0927
O      8.1649     -0.0264      3.1258
H      9.1368      1.9838      6.9680
H      6.1512      2.1857      6.6742
H      8.2444      0.1624      7.9807
H      8.6285      0.7344      2.7881
H      6.8418      0.2074      6.7519
H     10.1288     -0.9167      6.2021
H      9.3288      1.4691      4.4718
H      4.7959      3.6017      1.8933
N      4.9654      3.0885      2.8417
C      9.9436     -0.6573      5.0980
C      5.9949      2.5078      3.1705
C      7.6656      0.0820      4.4425
C      9.0600      0.5916      5.0345
C      6.8372      2.4798      4.4234
C      7.0262      1.4279      6.2628
C      8.6464      1.0801      6.4393
C      6.8792      1.2171      4.8983
20

O      9.8562     -1.5137      4.0592
O      8.4988     -0.0740      7.0891
O      8.1444     -0.0142      3.1238
H      9.0824      1.9460      6.8521
H      6.1540      2.1433      6.6459
H      8.2779      0.2819      8.0269
H      8.5650      0.7137      2.8028
H      6.8590      0.1950      6.7388
H     10.0455     -0.9987      6.1959
H      9.2566      1.4891      4.5609
H      4.7913      3.6138      1.9262
N      4.9642      3.0942      2.8340
C      9.9313     -0.6427      5.1076
C      5.9911      2.4909      3.1842
C      7.6667      0.1039      4.4317
C      9.0454      0.5799      5.0432
C      6.8440      2.4644      4.4132
C      7.0142      1.4319      6.2579
C      8.6226      1.1073      6.4337
C      6.8625      1.2035      4.8927
20

O      9.8468     -1.5068      4.0594
O      8.5285     -0.0598      7.0887
O      8.1222     -0.0051      3.1217
H      9.0402      1.9215      6.7493
H      6.1783      2.0939      6.6185
H      8.3124      0.3907      8.0670
H      8.5254      0.7282      2.8075
H      6.8566      0.2154      6.7176
H      9.9526     -1.0892      6.1692
H      9.1986      1.5189      4.6347
H      4.7882      3.6160      1.9649
N      4.9642      3.1001      2.8272
C      9.9189     -0.6270      5.1187
C      5.9882      2.4741      3.1988
C      7.6711      0.1258      4.4230
C      9.0314      0.5698      5.0533
C      6.8463      2.4514      4.3995
C      7.0018      1.4315      6.2588
C      8.5962      1.1338      6.4253
C      6.8450      1.1900      4.8854
20

O      9.8377     -1.4991      4.0602
O      8.5584     -0.0455      7.0926
O      8.0986      0.0008      3.1195
H      9.0293      1.9427      6.6754
H      6.2147      2.0474      6.5971
H      8.3503      0.4817      8.0903
H      8.5116      0.7806      2.7999
H      6.8358      0.2650      6.6910
H      9.8567     -1.1833      6.1247
H      9.1573      1.5580      4.6888
H      4.7851      3.6156      1.9983
N      4.9660      3.1054      2.8228
C      9.9064     -0.6109      5.1307
C      5.9856      2.4575      3.2135
C      7.6783      0.1465      4.4167
C      9.0176      0.5622      5.0644
C      6.8446      2.4409      4.3825
C      6.9900      1.4258      6.2648
C      8.5659      1.1563      6.4132
C      6.8266      1.1770      4.8771
20

O      9.8294     -1.4904      4.0614
O      8.5879     -0.0306      7.1010
O      8.0747      0.0049      3.1168
H      9.0519      2.0152      6.6319
H      6.2479      2.0185      6.5888
H      8.3915      0.5529      8.0952
H      8.5111      0.8472      2.7885
H      6.7987      0.3381      6.6629
H      9.7616     -1.2771      6.0662
H      9.1326      1.5991      4.7225
H      4.7804      3.6201      2.0153
N      4.9698      3.1093      2.8220
C      9.8942     -0.5952      5.1430
C      5.9827      2.4414      3.2275
C      7.6884      0.1650      4.4130
C      9.0036      0.5578      5.0759
C      6.8393      2.4324      4.3624
C      6.9796      1.4142      6.2740
C      8.5317      1.1739      6.3978
C      6.8072      1.1651      4.8686
20

O      9.8222     -1.4804      4.0628
O      8.6166     -0.0146      7.1137
O      8.0516      0.0088      3.1128
H      9.0877      2.1098      6.6100
H      6.2635      2.0209      6.5999
H      8.4348      0.6049      8.0837
H      8.5103      0.9025      2.7817
H      6.7469      0.4224      6.6391
H      9.6692     -1.3662      5.9982
H      9.1234      1.6317      4.7366
H      4.7737      3.6327      2.0120
N      4.9759      3.1114      2.8257
C      9.8832     -0.5805      5.1557
C      5.9786      2.4261      3.2398
C      7.7011      0.1804      4.4121
C      8.9890      0.5579      5.0870
C      6.8314      2.4254      4.3401
C      6.9718      1.3962      6.2848
C      8.4954      1.1885      6.3807
C      6.7870      1.1548      4.8605
20

O      9.8160     -1.4691      4.0639
O      8.6444      0.0026      7.1304
O      8.0303      0.0133      3.1075
H      9.1133      2.1970      6.6028
H      6.2611      2.0570      6.6297
H      8.4785      0.6391      8.0579
H      8.5018      0.9321      2.7831
H      6.6794      0.4941      6.6297
H      9.5800     -1.4444      5.9250
H      9.1275      1.6467      4.7319
H      4.7672      3.6496      1.9951
N      4.9841      3.1119      2.8336
C      9.8740     -0.5671      5.1687
C      5.9725      2.4121      3.2496
C      7.7160      0.1923      4.4138
C      8.9737      0.5630      5.0969
C      6.8218      2.4194      4.3167
C      6.9665      1.3741      6.2954
C      8.4591      1.2017      6.3635
C      6.7660      1.1460      4.8536
20

O      9.8106     -1.4567      4.0644
O      8.6711      0.0213      7.1502
O      8.0112      0.0189      3.1009
H      9.1152      2.2619      6.6079
H      6.2542      2.1149      6.6704
H      8.5210      0.6566      8.0204
H      8.4839      0.9307      2.7927
H      6.5911      0.5239      6.6466
H      9.4935     -1.5077      5.8519
H      9.1429      1.6378      4.7086
H      4.7643      3.6635      1.9777
N      4.9940      3.1113      2.8446
C      9.8672     -0.5554      5.1821
C      5.9638      2.3999      3.2559
C      7.7323      0.2004      4.4181
C      8.9577      0.5733      5.1052
C      6.8116      2.4137      4.2938
C      6.9625      1.3517      6.3045
C      8.4245      1.2144      6.3475
C      6.7445      1.1385      4.8483
20

O      9.8056     -1.4431      4.0638
O      8.6967      0.0414      7.1723
O      7.9946      0.0255      3.0933
H      9.0888      2.2978      6.6233
H      6.2570      2.1782      6.7123
H      8.5610      0.6599      7.9758
H      8.4583      0.8997      2.8081
H      6.4821      0.5057      6.6932
H      9.4091     -1.5549      5.7838
H      9.1685      1.6023      4.6670
H      4.7677      3.6683      1.9718
N      5.0053      3.1105      2.8574
C      9.8628     -0.5453      5.1960
C      5.9520      2.3900      3.2584
C      7.7489      0.2045      4.4243
C      8.9414      0.5883      5.1116
C      6.8021      2.4081      4.2729
C      6.9581      1.3314      6.3118
C      8.3928      1.2264      6.3339
C      6.7226      1.1318      4.8449
