14

O      5.2996      2.8401     10.5198
O      2.5427      0.0506      6.9526
O      3.5538      2.9993      9.1112
H      2.2713      1.2215      5.3017
H      4.0155     -1.1174      4.8946
H      3.0249      1.1096      3.8133
H      3.9017      2.3262      7.4074
N      5.7270      2.8441      8.1857
N      2.9650      0.7538      4.6878
N      4.7696      0.5953      7.4702
C      3.9803      0.1321      5.2581
C      4.8597      2.9556      9.2801
C      4.9556      1.9438      7.6095
C      3.8175      0.0220      6.6650
14

O      5.3005      2.7842     10.4999
O      2.5556      0.0476      6.9642
O      3.5448      2.9971      9.0994
H      2.2728      1.1764      5.2715
H      4.0116     -1.1180      4.9630
H      3.0237      1.0163      3.7580
H      3.9309      2.3116      7.4035
N      5.7386      2.8505      8.2005
N      2.9633      0.7699      4.6926
N      4.7592      0.5783      7.4855
C      3.9672      0.1089      5.2776
C      4.8416      2.9621      9.2942
C      4.9472      1.9681      7.5750
C      3.8081      0.0412      6.6885
14

O      5.3005      2.7297     10.4802
O      2.5683      0.0439      6.9763
O      3.5379      2.9938      9.0874
H      2.2646      1.1350      5.2472
H      4.0101     -1.0899      5.0301
H      3.0229      0.9251      3.6796
H      3.9475      2.3114      7.3898
N      5.7501      2.8563      8.2186
N      2.9595      0.7851      4.6976
N      4.7512      0.5624      7.5013
C      3.9574      0.0841      5.2968
C      4.8230      2.9695      9.3091
C      4.9366      1.9875      7.5367
C      3.7961      0.0635      6.7126
14

O      5.2998      2.6768     10.4613
O      2.5802      0.0397      6.9891
O      3.5331      2.9896      9.0757
H      2.2317      1.1038      5.2384
H      4.0096     -1.0402      5.0927
H      3.0189      0.8311      3.6069
H      3.9432      2.3286      7.3658
N      5.7605      2.8613      8.2395
N      2.9558      0.7991      4.7004
N      4.7461      0.5486      7.5179
C      3.9505      0.0583      5.3150
C      4.8046      2.9775      9.3238
C      4.9256      2.0019      7.4954
C      3.7821      0.0882      6.7363
14

O      5.2985      2.6257     10.4435
O      2.5901      0.0350      7.0028
O      3.5301      2.9847      9.0648
H      2.1718      1.0805      5.2448
H      4.0085     -0.9851      5.1471
H      3.0091      0.7357      3.5630
H      3.9179      2.3630      7.3312
N      5.7684      2.8657      8.2622
N      2.9531      0.8114      4.6996
N      4.7443      0.5377      7.5354
C      3.9461      0.0332      5.3316
C      4.7870      2.9856      9.3369
C      4.9155      2.0122      7.4524
C      3.7668      0.1145      6.7587
14

O      5.2969      2.5764     10.4272
O      2.5971      0.0296      7.0177
O      3.5285      2.9791      9.0550
H      2.0984      1.0568      5.2554
H      4.0069     -0.9518      5.1878
H      2.9917      0.6440      3.5590
H      3.8820      2.4082      7.2867
N      5.7730      2.8692      8.2854
N      2.9508      0.8220      4.6955
N      4.7459      0.5304      7.5539
C      3.9436      0.0113      5.3465
C      4.7713      2.9933      9.3474
C      4.9066      2.0190      7.4089
C      3.7513      0.1418      6.7788
14

O      5.2950      2.5292     10.4126
O      2.6000      0.0235      7.0341
O      3.5280      2.9726      9.0465
H      2.0303      1.0250      5.2576
H      4.0059     -0.9665      5.2098
H      2.9659      0.5630      3.5950
H      3.8491      2.4566      7.2336
N      5.7738      2.8721      8.3081
N      2.9481      0.8308      4.6891
N      4.7504      0.5268      7.5733
C      3.9424     -0.0046      5.3599
C      4.7582      3.0001      9.3544
C      4.8988      2.0235      7.3658
C      3.7367      0.1696      6.7959
14

O      5.2926      2.4843     10.3998
O      2.5984      0.0166      7.0522
O      3.5281      2.9655      9.0395
H      1.9815      0.9822      5.2438
H      4.0063     -1.0287      5.2131
H      2.9316      0.4957      3.6637
H      3.8298      2.5023      7.1734
N      5.7704      2.8747      8.3296
N      2.9439      0.8375      4.6813
N      4.7572      0.5271      7.5932
C      3.9422     -0.0141      5.3716
C      4.7482      3.0056      9.3578
C      4.8921      2.0264      7.3241
C      3.7245      0.1974      6.8095
14

O      5.2894      2.4418     10.3893
O      2.5921      0.0088      7.0718
O      3.5283      2.9576      9.0340
H      1.9592      0.9290      5.2119
H      4.0076     -1.1099      5.2022
H      2.8890      0.4398      3.7489
H      3.8301      2.5410      7.1080
N      5.7631      2.8771      8.3492
N      2.9376      0.8420      4.6735
N      4.7656      0.5307      7.6130
C      3.9427     -0.0187      5.3817
C      4.7420      3.0094      9.3580
C      4.8864      2.0284      7.2842
C      3.7154      0.2248      6.8194
14

O      5.2850      2.4020     10.3810
O      2.5816     -0.0001      7.0927
O      3.5284      2.9490      9.0300
H      1.9644      0.8682      5.1646
H      4.0097     -1.1800      5.1820
H      2.8384      0.3875      3.8258
H      3.8521      2.5696      7.0390
N      5.7521      2.8797      8.3668
N      2.9290      0.8448      4.6673
N      4.7745      0.5374      7.6320
C      3.9434     -0.0202      5.3901
C      4.7399      3.0110      9.3558
C      4.8823      2.0297      7.2464
C      3.7097      0.2510      6.8259
14

O      5.2792      2.3651     10.3752
O      2.5678     -0.0098      7.1144
O      3.5281      2.9399      9.0271
H      1.9907      0.8042      5.1097
H      4.0124     -1.2220      5.1560
H      2.7797      0.3278      3.8720
H      3.8943      2.5871      6.9676
N      5.7380      2.8825      8.3819
N      2.9185      0.8463      4.6636
N      4.7833      0.5469      7.6494
C      3.9444     -0.0194      5.3967
C      4.7419      3.0099      9.3516
C      4.8799      2.0310      7.2110
C      3.7068      0.2754      6.8294
14

O      5.2722      2.3311     10.3719
O      2.5520     -0.0202      7.1363
O      3.5274      2.9301      9.0253
H      2.0223      0.7411      5.0600
H      4.0154     -1.2291      5.1268
H      2.7155      0.2578      3.8833
H      3.9514      2.5944      6.8955
N      5.7215      2.8857      8.3941
N      2.9070      0.8464      4.6619
N      4.7911      0.5593      7.6639
C      3.9455     -0.0167      5.4016
C      4.7478      3.0057      9.3460
C      4.8801      2.0322      7.1783
C      3.7058      0.2974      6.8308
14

O      5.2644      2.2998     10.3708
O      2.5352     -0.0312      7.1578
O      3.5264      2.9198      9.0244
H      2.0375      0.6816      5.0302
H      4.0182     -1.2010      5.0961
H      2.6526      0.1869      3.8726
H      4.0152      2.5943      6.8270
N      5.7035      2.8894      8.4027
N      2.8958      0.8445      4.6602
N      4.7973      0.5747      7.6746
C      3.9466     -0.0118      5.4047
C      4.7565      2.9978      9.3396
C      4.8835      2.0336      7.1488
C      3.7058      0.3165      6.8308
14

O      5.2560      2.2710     10.3717
O      2.5186     -0.0429      7.1784
O      3.5252      2.9090      9.0245
H      2.0235      0.6275      5.0289
H      4.0198     -1.1422      5.0654
H      2.5995      0.1290      3.8555
H      4.0754      2.5916      6.7655
N      5.6853      2.8936      8.4073
N      2.8857      0.8401      4.6568
N      4.8014      0.5932      7.6811
C      3.9474     -0.0046      5.4061
C      4.7666      2.9863      9.3333
C      4.8907      2.0350      7.1232
C      3.7060      0.3322      6.8301
14

O      5.2475      2.2445     10.3741
O      2.5028     -0.0552      7.1980
O      3.5240      2.8975      9.0256
H      1.9885      0.5839      5.0536
H      4.0196     -1.0610      5.0355
H      2.5618      0.0937      3.8418
H      4.1223      2.5916      6.7120
N      5.6685      2.8983      8.4073
N      2.8765      0.8328      4.6512
N      4.8029      0.6144      7.6830
C      3.9477      0.0054      5.4059
C      4.7764      2.9707      9.3285
C      4.9014      2.0361      7.1029
C      3.7057      0.3441      6.8292
14

O      5.2393      2.2203     10.3776
O      2.4885     -0.0681      7.2163
O      3.5231      2.8857      9.0279
H      1.9536      0.5599      5.0947
H      4.0180     -0.9700      5.0057
H      2.5423      0.0855      3.8362
H      4.1506      2.5982      6.6669
N      5.6543      2.9036      8.4020
N      2.8676      0.8228      4.6437
N      4.8016      0.6378      7.6807
C      3.9473      0.0191      5.4043
C      4.7846      2.9512      9.3265
C      4.9146      2.0371      7.0891
C      3.7044      0.3516      6.8287
14

O      5.2315      2.1984     10.3815
O      2.4761     -0.0817      7.2332
O      3.5224      2.8734      9.0314
H      1.9375      0.5600      5.1423
H      4.0161     -0.8872      4.9722
H      2.5405      0.1040      3.8407
H      4.1608      2.6111      6.6310
N      5.6438      2.9096      8.3915
N      2.8589      0.8103      4.6352
N      4.7973      0.6630      7.6743
C      3.9463      0.0376      5.4017
C      4.7904      2.9277      9.3283
C      4.9290      2.0380      7.0832
C      3.7016      0.3544      6.8290
14

O      5.2241      2.1789     10.3853
O      2.4658     -0.0958      7.2484
O      3.5220      2.8609      9.0360
H      1.9497      0.5830      5.1894
H      4.0151     -0.8305      4.9303
H      2.5536      0.1435      3.8531
H      4.1581      2.6275      6.6059
N      5.6373      2.9163      8.3760
N      2.8503      0.7960      4.6264
N      4.7900      0.6898      7.6644
C      3.9447      0.0619      5.3986
C      4.7934      2.9002      9.3343
C      4.9444      2.0389      7.0850
C      3.6970      0.3525      6.8301
14

O      5.2174      2.1619     10.3883
O      2.4578     -0.1106      7.2620
O      3.5222      2.8481      9.0418
H      1.9914      0.6265      5.2319
H      4.0160     -0.8076      4.8792
H      2.5767      0.1923      3.8654
H      4.1489      2.6438      6.5929
N      5.6350      2.9234      8.3565
N      2.8423      0.7810      4.6185
N      4.7800      0.7179      7.6511
C      3.9427      0.0920      5.3953
C      4.7941      2.8689      9.3444
C      4.9618      2.0399      7.0938
C      3.6908      0.3461      6.8323
14

O      5.2112      2.1475     10.3900
O      2.4522     -0.1260      7.2740
O      3.5229      2.8352      9.0485
H      2.0550      0.6857      5.2690
H      4.0191     -0.8118      4.8263
H      2.6027      0.2340      3.8624
H      4.1389      2.6577      6.5914
N      5.6356      2.9308      8.3340
N      2.8353      0.7668      4.6130
N      4.7672      0.7469      7.6353
C      3.9405      0.1259      5.3914
C      4.7931      2.8342      9.3577
C      4.9819      2.0412      7.1087
C      3.6832      0.3357      6.8352
14

O      5.2059      2.1357     10.3902
O      2.4488     -0.1421      7.2845
O      3.5244      2.8222      9.0560
H      2.1241      0.7530      5.3047
H      4.0234     -0.8294      4.7819
H      2.6254      0.2553      3.8309
H      4.1320      2.6683      6.5988
N      5.6364      2.9390      8.3090
N      2.8303      0.7545      4.6108
N      4.7518      0.7762      7.6176
C      3.9382      0.1614      5.3865
C      4.7912      2.7964      9.3730
C      5.0048      2.0433      7.1291
C      3.6748      0.3214      6.8385
14

O      5.2018      2.1263     10.3886
O      2.4473     -0.1589      7.2937
O      3.5267      2.8090      9.0641
H      2.1815      0.8240      5.3448
H      4.0274     -0.8497      4.7537
H      2.6436      0.2559      3.7740
H      4.1305      2.6753      6.6106
N      5.6338      2.9483      8.2813
N      2.8282      0.7447      4.6115
N      4.7341      0.8054      7.5994
C      3.9356      0.1961      5.3808
C      4.7892      2.7564      9.3887
C      5.0299      2.0463      7.1544
C      3.6661      0.3037      6.8416
14

O      5.1991      2.1187     10.3857
O      2.4475     -0.1761      7.3016
O      3.5295      2.7953      9.0728
H      2.2187      0.8974      5.3896
H      4.0296     -0.8667      4.7454
H      2.6601      0.2462      3.7111
H      4.1358      2.6786      6.6228
N      5.6259      2.9588      8.2512
N      2.8288      0.7366      4.6136
N      4.7143      0.8336      7.5816
C      3.9324      0.2285      5.3748
C      4.7873      2.7151      9.4035
C      5.0567      2.0509      7.1840
C      3.6579      0.2828      6.8437
14

O      5.1985      2.1126     10.3818
O      2.4495     -0.1935      7.3084
O      3.5327      2.7809      9.0820
H      2.2377      0.9711      5.4308
H      4.0291     -0.8774      4.7574
H      2.6778      0.2374      3.6636
H      4.1493      2.6783      6.6328
N      5.6152      2.9695      8.2209
N      2.8314      0.7295      4.6162
N      4.6927      0.8601      7.5650
C      3.9282      0.2572      5.3691
C      4.7852      2.6734      9.4159
C      5.0847      2.0576      7.2163
C      3.6506      0.2594      6.8445
14

O      5.2003      2.1073     10.3779
O      2.4535     -0.2107      7.3141
O      3.5358      2.7654      9.0914
H      2.2453      1.0405      5.4554
H      4.0255     -0.8808      4.7892
H      2.6977      0.2364      3.6442
H      4.1716      2.6747      6.6391
N      5.6050      2.9796      8.1929
N      2.8350      0.7234      4.6189
N      4.6689      0.8838      7.5505
C      3.9232      0.2817      5.3645
C      4.7825      2.6326      9.4249
C      5.1134      2.0669      7.2497
C      3.6444      0.2340      6.8438
14

O      5.2048      2.1023     10.3748
O      2.4598     -0.2272      7.3187
O      3.5386      2.7487      9.1009
H      2.2470      1.0999      5.4528
H      4.0189     -0.8766      4.8395
H      2.7194      0.2464      3.6558
H      4.2007      2.6702      6.6394
N      5.5974      2.9892      8.1692
N      2.8385      0.7185      4.6218
N      4.6429      0.9043      7.5386
C      3.9180      0.3011      5.3616
C      4.7791      2.5936      9.4293
C      5.1422      2.0788      7.2820
C      3.6390      0.2076      6.8418
14

O      5.2123      2.0970     10.3734
O      2.4686     -0.2428      7.3221
O      3.5407      2.7304      9.1102
H      2.2454      1.1448      5.4179
H      4.0092     -0.8651      4.9069
H      2.7420      0.2669      3.6926
H      4.2310      2.6689      6.6294
N      5.5933      2.9989      8.1513
N      2.8415      0.7156      4.6251
N      4.6146      0.9213      7.5294
C      3.9138      0.3150      5.3608
C      4.7747      2.5574      9.4283
C      5.1707      2.0919      7.3110
C      3.6344      0.1807      6.8386
14

O      5.2227      2.0913     10.3739
O      2.4801     -0.2575      7.3243
O      3.5418      2.7102      9.1190
H      2.2403      1.1738      5.3522
H      3.9963     -0.8472      4.9893
H      2.7644      0.2936      3.7405
H      4.2536      2.6765      6.6029
N      5.5931      3.0095      8.1413
N      2.8436      0.7150      4.6293
N      4.5846      0.9353      7.5234
C      3.9115      0.3226      5.3625
C      4.7697      2.5244      9.4218
C      5.1982      2.1043      7.3347
C      3.6303      0.1540      6.8346
14

O      5.2356      2.0855     10.3761
O      2.4942     -0.2712      7.3254
O      3.5416      2.6880      9.1274
H      2.2277      1.1908      5.2640
H      3.9807     -0.8245      5.0830
H      2.7845      0.3179      3.7784
H      4.2602      2.6955      6.5551
N      5.5969      3.0221      8.1405
N      2.8451      0.7173      4.6346
N      4.5535      0.9472      7.5206
C      3.9116      0.3238      5.3670
C      4.7647      2.4951      9.4108
C      5.2236      2.1134      7.3518
C      3.6266      0.1280      6.8299
14

O      5.2937      2.0685     10.3815
O      2.5718     -0.3201      7.3173
O      3.5428      2.6229      9.1782
H      2.0005      1.2850      4.9013
H      5.0068      0.6350      5.2417
H      3.9295     -0.7843      5.4413
H      2.8536      0.3310      3.6764
N      5.6377      3.0867      8.2231
N      2.8546      0.7410      4.6551
N      4.4336      0.9936      7.5445
C      3.9285      0.2792      5.4142
C      4.7628      2.4079      9.3493
C      5.2894      2.0876      7.3542
C      3.6179      0.0459      6.8109
14

O      5.3059      2.0676     10.3767
O      2.5937     -0.3320      7.3129
O      3.5437      2.6144      9.1958
H      1.9353      1.3067      4.8177
H      4.9535      0.7584      5.2237
H      3.9287     -0.8117      5.5004
H      2.8781      0.3415      3.6510
N      5.6419      3.1001      8.2550
N      2.8572      0.7465      4.6549
N      4.4078      1.0075      7.5587
C      3.9334      0.2618      5.4310
C      4.7714      2.3921      9.3371
C      5.2983      2.0691      7.3402
C      3.6196      0.0347      6.8073
14

O      5.3162      2.0682     10.3686
O      2.6153     -0.3443      7.3079
O      3.5430      2.6046      9.2119
H      1.8968      1.3111      4.7359
H      4.8877      0.8783      5.2103
H      3.9346     -0.8531      5.5389
H      2.9066      0.3640      3.6477
N      5.6409      3.1095      8.2871
N      2.8586      0.7511      4.6518
N      4.3845      1.0224      7.5756
C      3.9374      0.2437      5.4476
C      4.7845      2.3789      9.3281
C      5.3053      2.0485      7.3226
C      3.6238      0.0285      6.8049
14

O      5.2996      2.8401     10.5198
O      2.5427      0.0506      6.9526
O      3.5538      2.9993      9.1112
H      2.2713      1.2215      5.3017
H      4.0155     -1.1174      4.8946
H      3.0249      1.1096      3.8133
H      3.9017      2.3262      7.4074
N      5.7270      2.8441      8.1857
N      2.9650      0.7538      4.6878
N      4.7696      0.5953      7.4702
C      3.9803      0.1321      5.2581
C      4.8597      2.9556      9.2801
C      4.9556      1.9438      7.6095
C      3.8175      0.0220      6.6650
14

O      5.3005      2.7842     10.4999
O      2.5556      0.0476      6.9642
O      3.5448      2.9971      9.0994
H      2.2728      1.1764      5.2715
H      4.0116     -1.1180      4.9630
H      3.0237      1.0163      3.7580
H      3.9309      2.3116      7.4035
N      5.7386      2.8505      8.2005
N      2.9633      0.7699      4.6926
N      4.7592      0.5783      7.4855
C      3.9672      0.1089      5.2776
C      4.8416      2.9621      9.2942
C      4.9472      1.9681      7.5750
C      3.8081      0.0412      6.6885
14

O      5.3005      2.7297     10.4802
O      2.5683      0.0439      6.9763
O      3.5379      2.9938      9.0874
H      2.2646      1.1350      5.2472
H      4.0101     -1.0899      5.0301
H      3.0229      0.9251      3.6796
H      3.9475      2.3114      7.3898
N      5.7501      2.8563      8.2186
N      2.9595      0.7851      4.6976
N      4.7512      0.5624      7.5013
C      3.9574      0.0841      5.2968
C      4.8230      2.9695      9.3091
C      4.9366      1.9875      7.5367
C      3.7961      0.0635      6.7126
14

O      5.2998      2.6768     10.4613
O      2.5802      0.0397      6.9891
O      3.5331      2.9896      9.0757
H      2.2317      1.1038      5.2384
H      4.0096     -1.0402      5.0927
H      3.0189      0.8311      3.6069
H      3.9432      2.3286      7.3658
N      5.7605      2.8613      8.2395
N      2.9558      0.7991      4.7004
N      4.7461      0.5486      7.5179
C      3.9505      0.0583      5.3150
C      4.8046      2.9775      9.3238
C      4.9256      2.0019      7.4954
C      3.7821      0.0882      6.7363
14

O      5.2985      2.6257     10.4435
O      2.5901      0.0350      7.0028
O      3.5301      2.9847      9.0648
H      2.1718      1.0805      5.2448
H      4.0085     -0.9851      5.1471
H      3.0091      0.7357      3.5630
H      3.9179      2.3630      7.3312
N      5.7684      2.8657      8.2622
N      2.9531      0.8114      4.6996
N      4.7443      0.5377      7.5354
C      3.9461      0.0332      5.3316
C      4.7870      2.9856      9.3369
C      4.9155      2.0122      7.4524
C      3.7668      0.1145      6.7587
14

O      5.2969      2.5764     10.4272
O      2.5971      0.0296      7.0177
O      3.5285      2.9791      9.0550
H      2.0984      1.0568      5.2554
H      4.0069     -0.9518      5.1878
H      2.9917      0.6440      3.5590
H      3.8820      2.4082      7.2867
N      5.7730      2.8692      8.2854
N      2.9508      0.8220      4.6955
N      4.7459      0.5304      7.5539
C      3.9436      0.0113      5.3465
C      4.7713      2.9933      9.3474
C      4.9066      2.0190      7.4089
C      3.7513      0.1418      6.7788
14

O      5.2950      2.5292     10.4126
O      2.6000      0.0235      7.0341
O      3.5280      2.9726      9.0465
H      2.0303      1.0250      5.2576
H      4.0059     -0.9665      5.2098
H      2.9659      0.5630      3.5950
H      3.8491      2.4566      7.2336
N      5.7738      2.8721      8.3081
N      2.9481      0.8308      4.6891
N      4.7504      0.5268      7.5733
C      3.9424     -0.0046      5.3599
C      4.7582      3.0001      9.3544
C      4.8988      2.0235      7.3658
C      3.7367      0.1696      6.7959
14

O      5.2926      2.4843     10.3998
O      2.5984      0.0166      7.0522
O      3.5281      2.9655      9.0395
H      1.9815      0.9822      5.2438
H      4.0063     -1.0287      5.2131
H      2.9316      0.4957      3.6637
H      3.8298      2.5023      7.1734
N      5.7704      2.8747      8.3296
N      2.9439      0.8375      4.6813
N      4.7572      0.5271      7.5932
C      3.9422     -0.0141      5.3716
C      4.7482      3.0056      9.3578
C      4.8921      2.0264      7.3241
C      3.7245      0.1974      6.8095
14

O      5.2894      2.4418     10.3893
O      2.5921      0.0088      7.0718
O      3.5283      2.9576      9.0340
H      1.9592      0.9290      5.2119
H      4.0076     -1.1099      5.2022
H      2.8890      0.4398      3.7489
H      3.8301      2.5410      7.1080
N      5.7631      2.8771      8.3492
N      2.9376      0.8420      4.6735
N      4.7656      0.5307      7.6130
C      3.9427     -0.0187      5.3817
C      4.7420      3.0094      9.3580
C      4.8864      2.0284      7.2842
C      3.7154      0.2248      6.8194
14

O      5.2850      2.4020     10.3810
O      2.5816     -0.0001      7.0927
O      3.5284      2.9490      9.0300
H      1.9644      0.8682      5.1646
H      4.0097     -1.1800      5.1820
H      2.8384      0.3875      3.8258
H      3.8521      2.5696      7.0390
N      5.7521      2.8797      8.3668
N      2.9290      0.8448      4.6673
N      4.7745      0.5374      7.6320
C      3.9434     -0.0202      5.3901
C      4.7399      3.0110      9.3558
C      4.8823      2.0297      7.2464
C      3.7097      0.2510      6.8259
14

O      5.2792      2.3651     10.3752
O      2.5678     -0.0098      7.1144
O      3.5281      2.9399      9.0271
H      1.9907      0.8042      5.1097
H      4.0124     -1.2220      5.1560
H      2.7797      0.3278      3.8720
H      3.8943      2.5871      6.9676
N      5.7380      2.8825      8.3819
N      2.9185      0.8463      4.6636
N      4.7833      0.5469      7.6494
C      3.9444     -0.0194      5.3967
C      4.7419      3.0099      9.3516
C      4.8799      2.0310      7.2110
C      3.7068      0.2754      6.8294
14

O      5.2722      2.3311     10.3719
O      2.5520     -0.0202      7.1363
O      3.5274      2.9301      9.0253
H      2.0223      0.7411      5.0600
H      4.0154     -1.2291      5.1268
H      2.7155      0.2578      3.8833
H      3.9514      2.5944      6.8955
N      5.7215      2.8857      8.3941
N      2.9070      0.8464      4.6619
N      4.7911      0.5593      7.6639
C      3.9455     -0.0167      5.4016
C      4.7478      3.0057      9.3460
C      4.8801      2.0322      7.1783
C      3.7058      0.2974      6.8308
14

O      5.2644      2.2998     10.3708
O      2.5352     -0.0312      7.1578
O      3.5264      2.9198      9.0244
H      2.0375      0.6816      5.0302
H      4.0182     -1.2010      5.0961
H      2.6526      0.1869      3.8726
H      4.0152      2.5943      6.8270
N      5.7035      2.8894      8.4027
N      2.8958      0.8445      4.6602
N      4.7973      0.5747      7.6746
C      3.9466     -0.0118      5.4047
C      4.7565      2.9978      9.3396
C      4.8835      2.0336      7.1488
C      3.7058      0.3165      6.8308
14

O      5.2560      2.2710     10.3717
O      2.5186     -0.0429      7.1784
O      3.5252      2.9090      9.0245
H      2.0235      0.6275      5.0289
H      4.0198     -1.1422      5.0654
H      2.5995      0.1290      3.8555
H      4.0754      2.5916      6.7655
N      5.6853      2.8936      8.4073
N      2.8857      0.8401      4.6568
N      4.8014      0.5932      7.6811
C      3.9474     -0.0046      5.4061
C      4.7666      2.9863      9.3333
C      4.8907      2.0350      7.1232
C      3.7060      0.3322      6.8301
14

O      5.2475      2.2445     10.3741
O      2.5028     -0.0552      7.1980
O      3.5240      2.8975      9.0256
H      1.9885      0.5839      5.0536
H      4.0196     -1.0610      5.0355
H      2.5618      0.0937      3.8418
H      4.1223      2.5916      6.7120
N      5.6685      2.8983      8.4073
N      2.8765      0.8328      4.6512
N      4.8029      0.6144      7.6830
C      3.9477      0.0054      5.4059
C      4.7764      2.9707      9.3285
C      4.9014      2.0361      7.1029
C      3.7057      0.3441      6.8292
14

O      5.2393      2.2203     10.3776
O      2.4885     -0.0681      7.2163
O      3.5231      2.8857      9.0279
H      1.9536      0.5599      5.0947
H      4.0180     -0.9700      5.0057
H      2.5423      0.0855      3.8362
H      4.1506      2.5982      6.6669
N      5.6543      2.9036      8.4020
N      2.8676      0.8228      4.6437
N      4.8016      0.6378      7.6807
C      3.9473      0.0191      5.4043
C      4.7846      2.9512      9.3265
C      4.9146      2.0371      7.0891
C      3.7044      0.3516      6.8287
14

O      5.2315      2.1984     10.3815
O      2.4761     -0.0817      7.2332
O      3.5224      2.8734      9.0314
H      1.9375      0.5600      5.1423
H      4.0161     -0.8872      4.9722
H      2.5405      0.1040      3.8407
H      4.1608      2.6111      6.6310
N      5.6438      2.9096      8.3915
N      2.8589      0.8103      4.6352
N      4.7973      0.6630      7.6743
C      3.9463      0.0376      5.4017
C      4.7904      2.9277      9.3283
C      4.9290      2.0380      7.0832
C      3.7016      0.3544      6.8290
14

O      5.2241      2.1789     10.3853
O      2.4658     -0.0958      7.2484
O      3.5220      2.8609      9.0360
H      1.9497      0.5830      5.1894
H      4.0151     -0.8305      4.9303
H      2.5536      0.1435      3.8531
H      4.1581      2.6275      6.6059
N      5.6373      2.9163      8.3760
N      2.8503      0.7960      4.6264
N      4.7900      0.6898      7.6644
C      3.9447      0.0619      5.3986
C      4.7934      2.9002      9.3343
C      4.9444      2.0389      7.0850
C      3.6970      0.3525      6.8301
14

O      5.2174      2.1619     10.3883
O      2.4578     -0.1106      7.2620
O      3.5222      2.8481      9.0418
H      1.9914      0.6265      5.2319
H      4.0160     -0.8076      4.8792
H      2.5767      0.1923      3.8654
H      4.1489      2.6438      6.5929
N      5.6350      2.9234      8.3565
N      2.8423      0.7810      4.6185
N      4.7800      0.7179      7.6511
C      3.9427      0.0920      5.3953
C      4.7941      2.8689      9.3444
C      4.9618      2.0399      7.0938
C      3.6908      0.3461      6.8323
14

O      5.2112      2.1475     10.3900
O      2.4522     -0.1260      7.2740
O      3.5229      2.8352      9.0485
H      2.0550      0.6857      5.2690
H      4.0191     -0.8118      4.8263
H      2.6027      0.2340      3.8624
H      4.1389      2.6577      6.5914
N      5.6356      2.9308      8.3340
N      2.8353      0.7668      4.6130
N      4.7672      0.7469      7.6353
C      3.9405      0.1259      5.3914
C      4.7931      2.8342      9.3577
C      4.9819      2.0412      7.1087
C      3.6832      0.3357      6.8352
14

O      5.2059      2.1357     10.3902
O      2.4488     -0.1421      7.2845
O      3.5244      2.8222      9.0560
H      2.1241      0.7530      5.3047
H      4.0234     -0.8294      4.7819
H      2.6254      0.2553      3.8309
H      4.1320      2.6683      6.5988
N      5.6364      2.9390      8.3090
N      2.8303      0.7545      4.6108
N      4.7518      0.7762      7.6176
C      3.9382      0.1614      5.3865
C      4.7912      2.7964      9.3730
C      5.0048      2.0433      7.1291
C      3.6748      0.3214      6.8385
14

O      5.2018      2.1263     10.3886
O      2.4473     -0.1589      7.2937
O      3.5267      2.8090      9.0641
H      2.1815      0.8240      5.3448
H      4.0274     -0.8497      4.7537
H      2.6436      0.2559      3.7740
H      4.1305      2.6753      6.6106
N      5.6338      2.9483      8.2813
N      2.8282      0.7447      4.6115
N      4.7341      0.8054      7.5994
C      3.9356      0.1961      5.3808
C      4.7892      2.7564      9.3887
C      5.0299      2.0463      7.1544
C      3.6661      0.3037      6.8416
14

O      5.1991      2.1187     10.3857
O      2.4475     -0.1761      7.3016
O      3.5295      2.7953      9.0728
H      2.2187      0.8974      5.3896
H      4.0296     -0.8667      4.7454
H      2.6601      0.2462      3.7111
H      4.1358      2.6786      6.6228
N      5.6259      2.9588      8.2512
N      2.8288      0.7366      4.6136
N      4.7143      0.8336      7.5816
C      3.9324      0.2285      5.3748
C      4.7873      2.7151      9.4035
C      5.0567      2.0509      7.1840
C      3.6579      0.2828      6.8437
14

O      5.1985      2.1126     10.3818
O      2.4495     -0.1935      7.3084
O      3.5327      2.7809      9.0820
H      2.2377      0.9711      5.4308
H      4.0291     -0.8774      4.7574
H      2.6778      0.2374      3.6636
H      4.1493      2.6783      6.6328
N      5.6152      2.9695      8.2209
N      2.8314      0.7295      4.6162
N      4.6927      0.8601      7.5650
C      3.9282      0.2572      5.3691
C      4.7852      2.6734      9.4159
C      5.0847      2.0576      7.2163
C      3.6506      0.2594      6.8445
14

O      5.2003      2.1073     10.3779
O      2.4535     -0.2107      7.3141
O      3.5358      2.7654      9.0914
H      2.2453      1.0405      5.4554
H      4.0255     -0.8808      4.7892
H      2.6977      0.2364      3.6442
H      4.1716      2.6747      6.6391
N      5.6050      2.9796      8.1929
N      2.8350      0.7234      4.6189
N      4.6689      0.8838      7.5505
C      3.9232      0.2817      5.3645
C      4.7825      2.6326      9.4249
C      5.1134      2.0669      7.2497
C      3.6444      0.2340      6.8438
14

O      5.2048      2.1023     10.3748
O      2.4598     -0.2272      7.3187
O      3.5386      2.7487      9.1009
H      2.2470      1.0999      5.4528
H      4.0189     -0.8766      4.8395
H      2.7194      0.2464      3.6558
H      4.2007      2.6702      6.6394
N      5.5974      2.9892      8.1692
N      2.8385      0.7185      4.6218
N      4.6429      0.9043      7.5386
C      3.9180      0.3011      5.3616
C      4.7791      2.5936      9.4293
C      5.1422      2.0788      7.2820
C      3.6390      0.2076      6.8418
14

O      5.2123      2.0970     10.3734
O      2.4686     -0.2428      7.3221
O      3.5407      2.7304      9.1102
H      2.2454      1.1448      5.4179
H      4.0092     -0.8651      4.9069
H      2.7420      0.2669      3.6926
H      4.2310      2.6689      6.6294
N      5.5933      2.9989      8.1513
N      2.8415      0.7156      4.6251
N      4.6146      0.9213      7.5294
C      3.9138      0.3150      5.3608
C      4.7747      2.5574      9.4283
C      5.1707      2.0919      7.3110
C      3.6344      0.1807      6.8386
14

O      5.2227      2.0913     10.3739
O      2.4801     -0.2575      7.3243
O      3.5418      2.7102      9.1190
H      2.2403      1.1738      5.3522
H      3.9963     -0.8472      4.9893
H      2.7644      0.2936      3.7405
H      4.2536      2.6765      6.6029
N      5.5931      3.0095      8.1413
N      2.8436      0.7150      4.6293
N      4.5846      0.9353      7.5234
C      3.9115      0.3226      5.3625
C      4.7697      2.5244      9.4218
C      5.1982      2.1043      7.3347
C      3.6303      0.1540      6.8346
14

O      5.2356      2.0855     10.3761
O      2.4942     -0.2712      7.3254
O      3.5416      2.6880      9.1274
H      2.2277      1.1908      5.2640
H      3.9807     -0.8245      5.0830
H      2.7845      0.3179      3.7784
H      4.2602      2.6955      6.5551
N      5.5969      3.0221      8.1405
N      2.8451      0.7173      4.6346
N      4.5535      0.9472      7.5206
C      3.9116      0.3238      5.3670
C      4.7647      2.4951      9.4108
C      5.2236      2.1134      7.3518
C      3.6266      0.1280      6.8299
14

O      5.2937      2.0685     10.3815
O      2.5718     -0.3201      7.3173
O      3.5428      2.6229      9.1782
H      2.0005      1.2850      4.9013
H      5.0068      0.6350      5.2417
H      3.9295     -0.7843      5.4413
H      2.8536      0.3310      3.6764
N      5.6377      3.0867      8.2231
N      2.8546      0.7410      4.6551
N      4.4336      0.9936      7.5445
C      3.9285      0.2792      5.4142
C      4.7628      2.4079      9.3493
C      5.2894      2.0876      7.3542
C      3.6179      0.0459      6.8109
14

O      5.3059      2.0676     10.3767
O      2.5937     -0.3320      7.3129
O      3.5437      2.6144      9.1958
H      1.9353      1.3067      4.8177
H      4.9535      0.7584      5.2237
H      3.9287     -0.8117      5.5004
H      2.8781      0.3415      3.6510
N      5.6419      3.1001      8.2550
N      2.8572      0.7465      4.6549
N      4.4078      1.0075      7.5587
C      3.9334      0.2618      5.4310
C      4.7714      2.3921      9.3371
C      5.2983      2.0691      7.3402
C      3.6196      0.0347      6.8073
14

O      5.3162      2.0682     10.3686
O      2.6153     -0.3443      7.3079
O      3.5430      2.6046      9.2119
H      1.8968      1.3111      4.7359
H      4.8877      0.8783      5.2103
H      3.9346     -0.8531      5.5389
H      2.9066      0.3640      3.6477
N      5.6409      3.1095      8.2871
N      2.8586      0.7511      4.6518
N      4.3845      1.0224      7.5756
C      3.9374      0.2437      5.4476
C      4.7845      2.3789      9.3281
C      5.3053      2.0485      7.3226
C      3.6238      0.0285      6.8049
