20

O     10.3696     -1.0707      4.1096
O      7.6553     -0.0325      7.2497
O      8.8723      0.5031      3.1736
H      9.8877      0.1330      3.3097
H      9.9743     -1.4964      3.3823
H      9.0328      1.4952      7.5579
H      8.2350      2.8481      6.0618
H      9.8884      1.1455      5.2348
H      4.1816      4.9174      3.9480
N      4.3251      3.7746      4.2204
N      9.0982     -2.1662      5.4564
C      9.8131     -1.0424      5.5398
C      5.3298      3.2085      4.0702
C      8.1635      0.5599      4.3942
C      9.1054      0.3458      5.5103
C      5.9038      1.9424      4.0256
C      7.3717      2.1451      6.1617
C      8.2491      1.0121      6.6802
C      8.7115     -2.9939      4.7710
C      7.2197      1.6752      4.7823
20

O     10.3946     -1.0746      4.1269
O      7.6788     -0.0594      7.2660
O      8.8570      0.4958      3.1691
H      9.9594      0.0828      3.3152
H      9.8987     -1.4791      3.4502
H      9.0487      1.5364      7.6253
H      8.2202      2.8510      6.0838
H      9.8057      1.1718      5.2580
H      4.1396      4.8660      3.9261
N      4.3486      3.7826      4.2079
N      9.1008     -2.2007      5.4526
C      9.8004     -1.0439      5.5290
C      5.3283      3.1848      4.0557
C      8.1626      0.5535      4.3837
C      9.0918      0.3816      5.5080
C      5.8955      1.9226      4.0151
C      7.3757      2.1416      6.1753
C      8.2489      1.0152      6.6605
C      8.7371     -3.0276      4.7768
C      7.2333      1.6884      4.8122
20

O     10.3696     -1.0707      4.1096
O      7.6553     -0.0325      7.2497
O      8.8723      0.5031      3.1736
H      9.8877      0.1330      3.3097
H      9.9743     -1.4964      3.3823
H      9.0328      1.4952      7.5579
H      8.2350      2.8481      6.0618
H      9.8884      1.1455      5.2348
H      4.1816      4.9174      3.9480
N      4.3251      3.7746      4.2204
N      9.0982     -2.1662      5.4564
C      9.8131     -1.0424      5.5398
C      5.3298      3.2085      4.0702
C      8.1635      0.5599      4.3942
C      9.1054      0.3458      5.5103
C      5.9038      1.9424      4.0256
C      7.3717      2.1451      6.1617
C      8.2491      1.0121      6.6802
C      8.7115     -2.9939      4.7710
C      7.2197      1.6752      4.7823
20

O     10.3946     -1.0746      4.1269
O      7.6788     -0.0594      7.2660
O      8.8570      0.4958      3.1691
H      9.9594      0.0828      3.3152
H      9.8987     -1.4791      3.4502
H      9.0487      1.5364      7.6253
H      8.2202      2.8510      6.0838
H      9.8057      1.1718      5.2580
H      4.1396      4.8660      3.9261
N      4.3486      3.7826      4.2079
N      9.1008     -2.2007      5.4526
C      9.8004     -1.0439      5.5290
C      5.3283      3.1848      4.0557
C      8.1626      0.5535      4.3837
C      9.0918      0.3816      5.5080
C      5.8955      1.9226      4.0151
C      7.3757      2.1416      6.1753
C      8.2489      1.0152      6.6605
C      8.7371     -3.0276      4.7768
C      7.2333      1.6884      4.8122
