21

O      9.8009     -1.4287      4.0618
O      8.7214      0.0625      7.1954
O      7.9803      0.0328      3.0853
H      8.8233     -1.6650      3.6164
H      9.0348      2.3023      6.6463
H      6.2773      2.2344      6.7485
H      8.5976      0.6549      7.9339
H      8.4308      0.8485      2.8246
H      6.3662      0.4637      6.7604
H      9.3266     -1.5864      5.7258
H      9.2036      1.5428      4.6080
H      4.7790      3.6609      1.9845
N      5.0172      3.1099      2.8709
C      9.8604     -0.5367      5.2105
C      5.9371      2.3827      3.2568
C      7.7644      0.2045      4.4322
C      8.9256      0.6071      5.1162
C      6.7942      2.4022      4.2551
C      6.9506      1.3130      6.3181
C      8.3652      1.2377      6.3236
C      6.7005      1.1250      4.8435
21

O      9.7964     -1.4135      4.0583
O      8.7452      0.0837      7.2177
O      7.9679      0.0398      3.0776
H      8.8199     -1.6929      3.6048
H      8.9566      2.2777      6.6734
H      6.3169      2.2746      6.7743
H      8.6296      0.6548      7.9123
H      8.4122      0.7977      2.8343
H      6.2600      0.4225      6.8363
H      9.2475     -1.6035      5.6817
H      9.2482      1.4670      4.5332
H      4.7979      3.6409      2.0170
N      5.0293      3.1102      2.8841
C      9.8592     -0.5292      5.2253
C      5.9197      2.3780      3.2515
C      7.7777      0.2004      4.4413
C      8.9113      0.6287      5.1191
C      6.7887      2.3957      4.2412
C      6.9381      1.2956      6.3244
C      8.3425      1.2481      6.3173
C      6.6785      1.1174      4.8439
21

O      9.7921     -1.3980      4.0531
O      8.7685      0.1041      7.2377
O      7.9566      0.0450      3.0712
H      8.8249     -1.7129      3.6021
H      8.8596      2.2301      6.7017
H      6.3741      2.2930      6.7868
H      8.6552      0.6747      7.9297
H      8.4172      0.7733      2.8288
H      6.1740      0.3958      6.9132
H      9.1751     -1.6060      5.6537
H      9.3017      1.3846      4.4446
H      4.8223      3.6123      2.0633
N      5.0406      3.1120      2.8970
C      9.8584     -0.5227      5.2403
C      5.9008      2.3753      3.2435
C      7.7877      0.1924      4.4510
C      8.8995      0.6518      5.1208
C      6.7858      2.3883      4.2316
C      6.9193      1.2789      6.3311
C      8.3251      1.2575      6.3155
C      6.6567      1.1083      4.8455
21

O      9.7881     -1.3825      4.0464
O      8.7910      0.1236      7.2549
O      7.9462      0.0477      3.0667
H      8.8380     -1.7245      3.6097
H      8.7524      2.1696      6.7303
H      6.4446      2.2870      6.7848
H      8.6750      0.7156      7.9860
H      8.4517      0.7843      2.8053
H      6.1131      0.3885      6.9866
H      9.1130     -1.5925      5.6422
H      9.3609      1.3018      4.3461
H      4.8472      3.5843      2.1085
N      5.0501      3.1157      2.9098
C      9.8569     -0.5170      5.2554
C      5.8822      2.3735      3.2339
C      7.7938      0.1808      4.4605
C      8.8911      0.6753      5.1213
C      6.7854      2.3794      4.2263
C      6.8944      1.2630      6.3385
C      8.3124      1.2654      6.3182
C      6.6351      1.0973      4.8483
21

O      9.7844     -1.3670      4.0380
O      8.8126      0.1431      7.2702
O      7.9376      0.0491      3.0640
H      8.8584     -1.7265      3.6285
H      8.6475      2.1148      6.7623
H      6.5219      2.2578      6.7683
H      8.6914      0.7629      8.0617
H      8.5053      0.8125      2.7708
H      6.0793      0.4025      7.0528
H      9.0641     -1.5618      5.6463
H      9.4200      1.2206      4.2453
H      4.8663      3.5692      2.1329
N      5.0571      3.1218      2.9236
C      9.8541     -0.5121      5.2706
C      5.8658      2.3713      3.2243
C      7.7953      0.1662      4.4693
C      8.8870      0.6990      5.1203
C      6.7868      2.3686      4.2247
C      6.8643      1.2475      6.3466
C      8.3031      1.2708      6.3246
C      6.6136      1.0842      4.8521
21

O      9.7813     -1.3516      4.0284
O      8.8329      0.1634      7.2847
O      7.9321      0.0504      3.0624
H      8.8842     -1.7180      3.6582
H      8.5581      2.0910      6.8060
H      6.5978      2.2138      6.7405
H      8.7055      0.8024      8.1351
H      8.5620      0.8335      2.7355
H      6.0721      0.4366      7.1085
H      9.0307     -1.5120      5.6645
H      9.4726      1.1429      4.1505
H      4.8760      3.5735      2.1249
N      5.0606      3.1312      2.9388
C      9.8491     -0.5084      5.2861
C      5.8534      2.3673      3.2158
C      7.7924      0.1491      4.4770
C      8.8877      0.7224      5.1171
C      6.7895      2.3556      4.2264
C      6.8304      1.2321      6.3550
C      8.2956      1.2718      6.3336
C      6.5923      1.0689      4.8567
21

O      9.7790     -1.3360      4.0176
O      8.8516      0.1851      7.2987
O      7.9299      0.0522      3.0619
H      8.9106     -1.6993      3.6972
H      8.4898      2.1122      6.8657
H      6.6626      2.1710      6.7076
H      8.7178      0.8275      8.1914
H      8.6112      0.8334      2.7065
H      6.0888      0.4870      7.1512
H      9.0156     -1.4414      5.6949
H      9.5132      1.0720      4.0688
H      4.8782      3.5926      2.0918
N      5.0600      3.1447      2.9547
C      9.8412     -0.5060      5.3018
C      5.8462      2.3603      3.2089
C      7.7857      0.1300      4.4840
C      8.8927      0.7445      5.1113
C      6.7934      2.3402      4.2306
C      6.7945      1.2155      6.3633
C      8.2888      1.2674      6.3447
C      6.5709      1.0516      4.8622
21

O      9.7782     -1.3198      4.0063
O      8.8687      0.2084      7.3123
O      7.9309      0.0548      3.0621
H      8.9282     -1.6731      3.7422
H      8.4396      2.1671      6.9321
H      6.7087      2.1499      6.6768
H      8.7293      0.8365      8.2234
H      8.6474      0.8078      2.6877
H      6.1244      0.5473      7.1785
H      9.0212     -1.3488      5.7357
H      9.5382      1.0120      4.0046
H      4.8783      3.6160      2.0530
N      5.0550      3.1632      2.9705
C      9.8299     -0.5050      5.3177
C      5.8440      2.3500      3.2037
C      7.7759      0.1100      4.4904
C      8.9015      0.7647      5.1026
C      6.7990      2.3224      4.2365
C      6.7582      1.1968      6.3708
C      8.2826      1.2585      6.3579
C      6.5494      1.0323      4.8685
21

O      9.7795     -1.3024      3.9948
O      8.8837      0.2331      7.3253
O      7.9349      0.0580      3.0630
H      8.9258     -1.6443      3.7901
H      8.4035      2.2335      6.9897
H      6.7321      2.1608      6.6508
H      8.7399      0.8304      8.2282
H      8.6680      0.7581      2.6807
H      6.1730      0.6108      7.1906
H      9.0492     -1.2345      5.7853
H      9.5451      0.9669      3.9606
H      4.8804      3.6347      2.0269
N      5.0464      3.1864      2.9853
C      9.8152     -0.5054      5.3337
C      5.8458      2.3366      3.1996
C      7.7637      0.0896      4.4966
C      8.9130      0.7821      5.0911
C      6.8072      2.3023      4.2434
C      6.7226      1.1757      6.3773
C      8.2773      1.2469      6.3739
C      6.5278      1.0108      4.8756
21

O      9.7830     -1.2837      3.9837
O      8.8965      0.2591      7.3371
O      7.9414      0.0615      3.0648
H      8.8979     -1.6161      3.8399
H      8.3801      2.2943      7.0270
H      6.7323      2.1955      6.6268
H      8.7494      0.8120      8.2065
H      8.6733      0.6903      2.6856
H      6.2262      0.6685      7.1942
H      9.0943     -1.1080      5.8443
H      9.5334      0.9396      3.9384
H      4.8864      3.6442      2.0245
N      5.0356      3.2129      2.9990
C      9.7975     -0.5066      5.3491
C      5.8498      2.3215      3.1962
C      7.7495      0.0696      4.5029
C      8.9261      0.7960      5.0770
C      6.8183      2.2804      4.2505
C      6.6890      1.1536      6.3823
C      8.2730      1.2342      6.3928
C      6.5062      0.9871      4.8834
21

O      9.7878     -1.2638      3.9736
O      8.9069      0.2860      7.3470
O      7.9493      0.0646      3.0675
H      8.8522     -1.5874      3.8922
H      8.3695      2.3399      7.0385
H      6.7083      2.2359      6.6001
H      8.7577      0.7862      8.1659
H      8.6687      0.6141      2.7003
H      6.2720      0.7084      7.2044
H      9.1385     -0.9907      5.9198
H      9.5044      0.9319      3.9385
H      4.8956      3.6448      2.0487
N      5.0241      3.2411      3.0118
C      9.7784     -0.5069      5.3627
C      5.8543      2.3068      3.1932
C      7.7340      0.0505      4.5095
C      8.9397      0.8057      5.0610
C      6.8320      2.2575      4.2579
C      6.6586      1.1332      6.3852
C      8.2696      1.2213      6.4140
C      6.4847      0.9610      4.8917
21

O      9.7924     -1.2432      3.9650
O      8.9149      0.3128      7.3538
O      7.9575      0.0663      3.0715
H      8.8043     -1.5555      3.9465
H      8.3715      2.3652      7.0227
H      6.6609      2.2663      6.5685
H      8.7639      0.7629      8.1257
H      8.6682      0.5433      2.7186
H      6.3001      0.7203      7.2385
H      9.1596     -0.9060      6.0248
H      9.4602      0.9444      3.9595
H      4.9065      3.6401      2.0939
N      5.0136      3.2688      3.0242
C      9.7598     -0.5050      5.3723
C      5.8581      2.2943      3.1909
C      7.7175      0.0327      4.5164
C      8.9533      0.8105      5.0437
C      6.8456      2.2350      4.2674
C      6.6327      1.1166      6.3849
C      8.2672      1.2090      6.4367
C      6.4633      0.9329      4.9001
21

O      9.7952     -1.2227      3.9583
O      8.9206      0.3386      7.3559
O      7.9643      0.0659      3.0772
H      8.7686     -1.5192      4.0001
H      8.3850      2.3684      6.9807
H      6.5931      2.2769      6.5325
H      8.7640      0.7570      8.1149
H      8.6911      0.4917      2.7327
H      6.3092      0.7039      7.2980
H      9.1547     -0.8577      6.1574
H      9.4040      0.9764      3.9974
H      4.9163      3.6369      2.1437
N      5.0052      3.2944      3.0372
C      9.7419     -0.5006      5.3773
C      5.8608      2.2854      3.1896
C      7.7003      0.0165      4.5237
C      8.9659      0.8098      5.0262
C      6.8545      2.2149      4.2827
C      6.6113      1.1044      6.3817
C      8.2653      1.1982      6.4600
C      6.4422      0.9030      4.9079
21

O      9.7950     -1.2025      3.9542
O      8.9241      0.3629      7.3530
O      7.9689      0.0633      3.0847
H      8.7543     -1.4798      4.0488
H      8.4073      2.3497      6.9163
H      6.5091      2.2638      6.4945
H      8.7551      0.7750      8.1489
H      8.7457      0.4628      2.7405
H      6.3041      0.6672      7.3669
H      9.1401     -0.8367      6.2929
H      9.3409      1.0268      4.0423
H      4.9232      3.6432      2.1756
N      4.9998      3.3162      3.0520
C      9.7235     -0.4950      5.3789
C      5.8619      2.2809      3.1899
C      7.6826      0.0020      4.5312
C      8.9764      0.8034      5.0102
C      6.8576      2.1979      4.3041
C      6.5942      1.0961      6.3772
C      8.2636      1.1894      6.4827
C      6.4220      0.8721      4.9146
21

O      9.8009     -1.4287      4.0618
O      8.7214      0.0625      7.1954
O      7.9803      0.0328      3.0853
H      8.8233     -1.6650      3.6164
H      9.0348      2.3023      6.6463
H      6.2773      2.2344      6.7485
H      8.5976      0.6549      7.9339
H      8.4308      0.8485      2.8246
H      6.3662      0.4637      6.7604
H      9.3266     -1.5864      5.7258
H      9.2036      1.5428      4.6080
H      4.7790      3.6609      1.9845
N      5.0172      3.1099      2.8709
C      9.8604     -0.5367      5.2105
C      5.9371      2.3827      3.2568
C      7.7644      0.2045      4.4322
C      8.9256      0.6071      5.1162
C      6.7942      2.4022      4.2551
C      6.9506      1.3130      6.3181
C      8.3652      1.2377      6.3236
C      6.7005      1.1250      4.8435
21

O      9.7964     -1.4135      4.0583
O      8.7452      0.0837      7.2177
O      7.9679      0.0398      3.0776
H      8.8199     -1.6929      3.6048
H      8.9566      2.2777      6.6734
H      6.3169      2.2746      6.7743
H      8.6296      0.6548      7.9123
H      8.4122      0.7977      2.8343
H      6.2600      0.4225      6.8363
H      9.2475     -1.6035      5.6817
H      9.2482      1.4670      4.5332
H      4.7979      3.6409      2.0170
N      5.0293      3.1102      2.8841
C      9.8592     -0.5292      5.2253
C      5.9197      2.3780      3.2515
C      7.7777      0.2004      4.4413
C      8.9113      0.6287      5.1191
C      6.7887      2.3957      4.2412
C      6.9381      1.2956      6.3244
C      8.3425      1.2481      6.3173
C      6.6785      1.1174      4.8439
21

O      9.7921     -1.3980      4.0531
O      8.7685      0.1041      7.2377
O      7.9566      0.0450      3.0712
H      8.8249     -1.7129      3.6021
H      8.8596      2.2301      6.7017
H      6.3741      2.2930      6.7868
H      8.6552      0.6747      7.9297
H      8.4172      0.7733      2.8288
H      6.1740      0.3958      6.9132
H      9.1751     -1.6060      5.6537
H      9.3017      1.3846      4.4446
H      4.8223      3.6123      2.0633
N      5.0406      3.1120      2.8970
C      9.8584     -0.5227      5.2403
C      5.9008      2.3753      3.2435
C      7.7877      0.1924      4.4510
C      8.8995      0.6518      5.1208
C      6.7858      2.3883      4.2316
C      6.9193      1.2789      6.3311
C      8.3251      1.2575      6.3155
C      6.6567      1.1083      4.8455
21

O      9.7881     -1.3825      4.0464
O      8.7910      0.1236      7.2549
O      7.9462      0.0477      3.0667
H      8.8380     -1.7245      3.6097
H      8.7524      2.1696      6.7303
H      6.4446      2.2870      6.7848
H      8.6750      0.7156      7.9860
H      8.4517      0.7843      2.8053
H      6.1131      0.3885      6.9866
H      9.1130     -1.5925      5.6422
H      9.3609      1.3018      4.3461
H      4.8472      3.5843      2.1085
N      5.0501      3.1157      2.9098
C      9.8569     -0.5170      5.2554
C      5.8822      2.3735      3.2339
C      7.7938      0.1808      4.4605
C      8.8911      0.6753      5.1213
C      6.7854      2.3794      4.2263
C      6.8944      1.2630      6.3385
C      8.3124      1.2654      6.3182
C      6.6351      1.0973      4.8483
21

O      9.7844     -1.3670      4.0380
O      8.8126      0.1431      7.2702
O      7.9376      0.0491      3.0640
H      8.8584     -1.7265      3.6285
H      8.6475      2.1148      6.7623
H      6.5219      2.2578      6.7683
H      8.6914      0.7629      8.0617
H      8.5053      0.8125      2.7708
H      6.0793      0.4025      7.0528
H      9.0641     -1.5618      5.6463
H      9.4200      1.2206      4.2453
H      4.8663      3.5692      2.1329
N      5.0571      3.1218      2.9236
C      9.8541     -0.5121      5.2706
C      5.8658      2.3713      3.2243
C      7.7953      0.1662      4.4693
C      8.8870      0.6990      5.1203
C      6.7868      2.3686      4.2247
C      6.8643      1.2475      6.3466
C      8.3031      1.2708      6.3246
C      6.6136      1.0842      4.8521
21

O      9.7813     -1.3516      4.0284
O      8.8329      0.1634      7.2847
O      7.9321      0.0504      3.0624
H      8.8842     -1.7180      3.6582
H      8.5581      2.0910      6.8060
H      6.5978      2.2138      6.7405
H      8.7055      0.8024      8.1351
H      8.5620      0.8335      2.7355
H      6.0721      0.4366      7.1085
H      9.0307     -1.5120      5.6645
H      9.4726      1.1429      4.1505
H      4.8760      3.5735      2.1249
N      5.0606      3.1312      2.9388
C      9.8491     -0.5084      5.2861
C      5.8534      2.3673      3.2158
C      7.7924      0.1491      4.4770
C      8.8877      0.7224      5.1171
C      6.7895      2.3556      4.2264
C      6.8304      1.2321      6.3550
C      8.2956      1.2718      6.3336
C      6.5923      1.0689      4.8567
21

O      9.7790     -1.3360      4.0176
O      8.8516      0.1851      7.2987
O      7.9299      0.0522      3.0619
H      8.9106     -1.6993      3.6972
H      8.4898      2.1122      6.8657
H      6.6626      2.1710      6.7076
H      8.7178      0.8275      8.1914
H      8.6112      0.8334      2.7065
H      6.0888      0.4870      7.1512
H      9.0156     -1.4414      5.6949
H      9.5132      1.0720      4.0688
H      4.8782      3.5926      2.0918
N      5.0600      3.1447      2.9547
C      9.8412     -0.5060      5.3018
C      5.8462      2.3603      3.2089
C      7.7857      0.1300      4.4840
C      8.8927      0.7445      5.1113
C      6.7934      2.3402      4.2306
C      6.7945      1.2155      6.3633
C      8.2888      1.2674      6.3447
C      6.5709      1.0516      4.8622
21

O      9.7782     -1.3198      4.0063
O      8.8687      0.2084      7.3123
O      7.9309      0.0548      3.0621
H      8.9282     -1.6731      3.7422
H      8.4396      2.1671      6.9321
H      6.7087      2.1499      6.6768
H      8.7293      0.8365      8.2234
H      8.6474      0.8078      2.6877
H      6.1244      0.5473      7.1785
H      9.0212     -1.3488      5.7357
H      9.5382      1.0120      4.0046
H      4.8783      3.6160      2.0530
N      5.0550      3.1632      2.9705
C      9.8299     -0.5050      5.3177
C      5.8440      2.3500      3.2037
C      7.7759      0.1100      4.4904
C      8.9015      0.7647      5.1026
C      6.7990      2.3224      4.2365
C      6.7582      1.1968      6.3708
C      8.2826      1.2585      6.3579
C      6.5494      1.0323      4.8685
21

O      9.7795     -1.3024      3.9948
O      8.8837      0.2331      7.3253
O      7.9349      0.0580      3.0630
H      8.9258     -1.6443      3.7901
H      8.4035      2.2335      6.9897
H      6.7321      2.1608      6.6508
H      8.7399      0.8304      8.2282
H      8.6680      0.7581      2.6807
H      6.1730      0.6108      7.1906
H      9.0492     -1.2345      5.7853
H      9.5451      0.9669      3.9606
H      4.8804      3.6347      2.0269
N      5.0464      3.1864      2.9853
C      9.8152     -0.5054      5.3337
C      5.8458      2.3366      3.1996
C      7.7637      0.0896      4.4966
C      8.9130      0.7821      5.0911
C      6.8072      2.3023      4.2434
C      6.7226      1.1757      6.3773
C      8.2773      1.2469      6.3739
C      6.5278      1.0108      4.8756
21

O      9.7830     -1.2837      3.9837
O      8.8965      0.2591      7.3371
O      7.9414      0.0615      3.0648
H      8.8979     -1.6161      3.8399
H      8.3801      2.2943      7.0270
H      6.7323      2.1955      6.6268
H      8.7494      0.8120      8.2065
H      8.6733      0.6903      2.6856
H      6.2262      0.6685      7.1942
H      9.0943     -1.1080      5.8443
H      9.5334      0.9396      3.9384
H      4.8864      3.6442      2.0245
N      5.0356      3.2129      2.9990
C      9.7975     -0.5066      5.3491
C      5.8498      2.3215      3.1962
C      7.7495      0.0696      4.5029
C      8.9261      0.7960      5.0770
C      6.8183      2.2804      4.2505
C      6.6890      1.1536      6.3823
C      8.2730      1.2342      6.3928
C      6.5062      0.9871      4.8834
21

O      9.7878     -1.2638      3.9736
O      8.9069      0.2860      7.3470
O      7.9493      0.0646      3.0675
H      8.8522     -1.5874      3.8922
H      8.3695      2.3399      7.0385
H      6.7083      2.2359      6.6001
H      8.7577      0.7862      8.1659
H      8.6687      0.6141      2.7003
H      6.2720      0.7084      7.2044
H      9.1385     -0.9907      5.9198
H      9.5044      0.9319      3.9385
H      4.8956      3.6448      2.0487
N      5.0241      3.2411      3.0118
C      9.7784     -0.5069      5.3627
C      5.8543      2.3068      3.1932
C      7.7340      0.0505      4.5095
C      8.9397      0.8057      5.0610
C      6.8320      2.2575      4.2579
C      6.6586      1.1332      6.3852
C      8.2696      1.2213      6.4140
C      6.4847      0.9610      4.8917
21

O      9.7924     -1.2432      3.9650
O      8.9149      0.3128      7.3538
O      7.9575      0.0663      3.0715
H      8.8043     -1.5555      3.9465
H      8.3715      2.3652      7.0227
H      6.6609      2.2663      6.5685
H      8.7639      0.7629      8.1257
H      8.6682      0.5433      2.7186
H      6.3001      0.7203      7.2385
H      9.1596     -0.9060      6.0248
H      9.4602      0.9444      3.9595
H      4.9065      3.6401      2.0939
N      5.0136      3.2688      3.0242
C      9.7598     -0.5050      5.3723
C      5.8581      2.2943      3.1909
C      7.7175      0.0327      4.5164
C      8.9533      0.8105      5.0437
C      6.8456      2.2350      4.2674
C      6.6327      1.1166      6.3849
C      8.2672      1.2090      6.4367
C      6.4633      0.9329      4.9001
21

O      9.7952     -1.2227      3.9583
O      8.9206      0.3386      7.3559
O      7.9643      0.0659      3.0772
H      8.7686     -1.5192      4.0001
H      8.3850      2.3684      6.9807
H      6.5931      2.2769      6.5325
H      8.7640      0.7570      8.1149
H      8.6911      0.4917      2.7327
H      6.3092      0.7039      7.2980
H      9.1547     -0.8577      6.1574
H      9.4040      0.9764      3.9974
H      4.9163      3.6369      2.1437
N      5.0052      3.2944      3.0372
C      9.7419     -0.5006      5.3773
C      5.8608      2.2854      3.1896
C      7.7003      0.0165      4.5237
C      8.9659      0.8098      5.0262
C      6.8545      2.2149      4.2827
C      6.6113      1.1044      6.3817
C      8.2653      1.1982      6.4600
C      6.4422      0.9030      4.9079
21

O      9.7950     -1.2025      3.9542
O      8.9241      0.3629      7.3530
O      7.9689      0.0633      3.0847
H      8.7543     -1.4798      4.0488
H      8.4073      2.3497      6.9163
H      6.5091      2.2638      6.4945
H      8.7551      0.7750      8.1489
H      8.7457      0.4628      2.7405
H      6.3041      0.6672      7.3669
H      9.1401     -0.8367      6.2929
H      9.3409      1.0268      4.0423
H      4.9232      3.6432      2.1756
N      4.9998      3.3162      3.0520
C      9.7235     -0.4950      5.3789
C      5.8619      2.2809      3.1899
C      7.6826      0.0020      4.5312
C      8.9764      0.8034      5.0102
C      6.8576      2.1979      4.3041
C      6.5942      1.0961      6.3772
C      8.2636      1.1894      6.4827
C      6.4220      0.8721      4.9146
