26

O      7.2867     -1.4168      5.0118
O      9.4803     -1.1427      4.0989
O      8.7820      0.5133      7.3548
O      7.9760      0.0153      3.0991
H      9.0793     -2.0448      3.8320
H      8.1511      2.4391      6.7548
H      6.0196      1.9499      6.8495
H      8.3473      0.0628      8.0951
H      5.2362      0.6292      4.6898
H     10.4474     -0.4340      6.0059
H      8.9113      0.5723      3.1239
H      6.6691     -0.2240      6.8311
H      9.0633     -1.3494      5.9155
H      9.2337      1.0260      4.6269
H      4.8421      3.7538      2.3758
H      6.3159      2.5257      5.2531
H      6.1604     -1.0799      5.4896
N      5.1113      3.3054      3.2717
C      9.6016     -0.6996      5.4332
C      5.9760      2.3208      3.3169
C      7.5450     -0.0984      4.4870
C      8.5669      0.4566      5.3876
C      6.8539      2.1671      4.3792
C      6.6007      0.9980      6.4468
C      8.0297      1.3556      6.3804
C      6.5144      0.9182      4.9906
26

O      7.2867     -1.4168      5.0118
O      9.4803     -1.1427      4.0989
O      8.7820      0.5133      7.3548
O      7.9760      0.0153      3.0991
H      9.0793     -2.0448      3.8320
H      8.1511      2.4391      6.7548
H      6.0196      1.9499      6.8495
H      8.3473      0.0628      8.0951
H      5.2362      0.6292      4.6898
H     10.4474     -0.4340      6.0059
H      8.9113      0.5723      3.1239
H      6.6691     -0.2240      6.8311
H      9.0633     -1.3494      5.9155
H      9.2337      1.0260      4.6269
H      4.8421      3.7538      2.3758
H      6.3159      2.5257      5.2531
H      6.1604     -1.0799      5.4896
N      5.1113      3.3054      3.2717
C      9.6016     -0.6996      5.4332
C      5.9760      2.3208      3.3169
C      7.5450     -0.0984      4.4870
C      8.5669      0.4566      5.3876
C      6.8539      2.1671      4.3792
C      6.6007      0.9980      6.4468
C      8.0297      1.3556      6.3804
C      6.5144      0.9182      4.9906
