22

O     10.5295     -1.6183      5.6214
O      5.7509      1.7049      2.5815
O      6.3914     -1.7651      4.5871
O      8.4961      0.0675      7.5572
O      7.0189     -0.3602      2.7337
H      9.2504      0.4308      4.9228
H      5.7838      0.7271      7.0876
H      6.9816      3.0816      1.2985
H      8.5568      0.7428      8.3686
H      9.0632     -1.0748      3.8274
H      7.6514      0.1379      4.4042
H      4.7852      1.2131      2.5191
H     10.6242     -2.5197      5.9423
N      6.9363      3.5487      2.2944
C      9.3054     -1.5257      4.8560
C      6.2640      2.6318      3.3043
C      6.7692     -0.7029      4.0465
C      8.5402     -0.3200      5.2374
C      6.2851      2.1143      4.6462
C      6.4870      0.3630      6.2112
C      8.1223      0.3837      6.4251
C      6.0779      0.7376      4.8350
22

O     10.5232     -1.6226      5.6236
O      5.7413      1.6898      2.5810
O      6.3871     -1.7632      4.5524
O      8.5013      0.0718      7.5600
O      7.0055     -0.3500      2.7367
H      9.1966      0.4961      4.9923
H      5.7725      0.7124      7.0845
H      6.9419      3.1010      1.3714
H      8.5910      0.6885      8.3473
H      8.9648     -1.0529      3.7985
H      7.6913      0.1332      4.4533
H      4.7387      1.2731      2.4876
H     10.6967     -2.5265      5.8091
N      6.9247      3.5623      2.2776
C      9.3004     -1.5175      4.8389
C      6.2354      2.6142      3.3009
C      6.7662     -0.7123      4.0631
C      8.5633     -0.3093      5.2266
C      6.2945      2.1391      4.6404
C      6.4745      0.3772      6.2346
C      8.1178      0.3929      6.4297
C      6.0876      0.7369      4.8488
22

O     10.5162     -1.6252      5.6243
O      5.7294      1.6720      2.5774
O      6.3831     -1.7608      4.5165
O      8.5080      0.0746      7.5645
O      6.9912     -0.3415      2.7415
H      9.1613      0.5739      5.0501
H      5.7782      0.7019      7.0737
H      6.8972      3.1158      1.4511
H      8.6125      0.6435      8.3278
H      8.8992     -1.0371      3.7656
H      7.7563      0.1173      4.5181
H      4.7142      1.3413      2.4676
H     10.7617     -2.5520      5.6759
N      6.9122      3.5745      2.2656
C      9.2938     -1.5105      4.8194
C      6.2086      2.6010      3.2958
C      6.7616     -0.7171      4.0758
C      8.5861     -0.2967      5.2168
C      6.3047      2.1681      4.6367
C      6.4660      0.3979      6.2580
C      8.1082      0.4022      6.4318
C      6.0966      0.7348      4.8634
22

O     10.5088     -1.6267      5.6237
O      5.7152      1.6513      2.5709
O      6.3792     -1.7589      4.4800
O      8.5158      0.0755      7.5691
O      6.9760     -0.3347      2.7485
H      9.1462      0.6613      5.0979
H      5.7948      0.6985      7.0629
H      6.8482      3.1062      1.4966
H      8.6246      0.6192      8.3241
H      8.8674     -1.0295      3.7301
H      7.8378      0.0889      4.5875
H      4.7095      1.4137      2.4592
H     10.8137     -2.5869      5.5412
N      6.8988      3.5862      2.2608
C      9.2861     -1.5040      4.7976
C      6.1840      2.5926      3.2898
C      6.7554     -0.7162      4.0843
C      8.6081     -0.2819      5.2092
C      6.3151      2.2004      4.6350
C      6.4620      0.4253      6.2808
C      8.0944      0.4112      6.4320
C      6.1049      0.7318      4.8787
22

O     10.5016     -1.6285      5.6219
O      5.6987      1.6278      2.5615
O      6.3752     -1.7581      4.4435
O      8.5244      0.0742      7.5725
O      6.9602     -0.3294      2.7577
H      9.1476      0.7499      5.1387
H      5.8133      0.7055      7.0624
H      6.7942      3.0621      1.4888
H      8.6298      0.6222      8.3448
H      8.8688     -1.0327      3.6943
H      7.9150      0.0538      4.6411
H      4.7185      1.4861      2.4611
H     10.8443     -2.6122      5.4056
N      6.8848      3.5976      2.2638
C      9.2780     -1.4961      4.7739
C      6.1619      2.5895      3.2832
C      6.7480     -0.7087      4.0881
C      8.6303     -0.2646      5.2052
C      6.3252      2.2344      4.6349
C      6.4635      0.4554      6.3018
C      8.0773      0.4193      6.4313
C      6.1128      0.7287      4.8945
22

O     10.4951     -1.6316      5.6183
O      5.6808      1.6020      2.5495
O      6.3710     -1.7589      4.4076
O      8.5335      0.0714      7.5744
O      6.9440     -0.3257      2.7690
H      9.1603      0.8308      5.1749
H      5.8250      0.7248      7.0812
H      6.7369      2.9985      1.4491
H      8.6276      0.6495      8.3847
H      8.9013     -1.0494      3.6621
H      7.9561      0.0259      4.6522
H      4.7298      1.5545      2.4705
H     10.8478     -2.6148      5.2728
N      6.8703      3.6069      2.2728
C      9.2707     -1.4837      4.7491
C      6.1426      2.5917      3.2765
C      6.7399     -0.6941      4.0872
C      8.6547     -0.2451      5.2069
C      6.3334      2.2679      4.6346
C      6.4714      0.4842      6.3201
C      8.0578      0.4259      6.4306
C      6.1218      0.7263      4.9109
22

O     10.4898     -1.6363      5.6124
O      5.6623      1.5743      2.5354
O      6.3667     -1.7614      4.3726
O      8.5429      0.0678      7.5749
O      6.9277     -0.3234      2.7823
H      9.1799      0.8969      5.2080
H      5.8275      0.7555      7.1201
H      6.6815      2.9408      1.4114
H      8.6159      0.6933      8.4312
H      8.9620     -1.0825      3.6369
H      7.9463      0.0116      4.6085
H      4.7286      1.6165      2.4837
H     10.8241     -2.5897      5.1478
N      6.8551      3.6118      2.2852
C      9.2647     -1.4655      4.7235
C      6.1262      2.5988      3.2694
C      6.7314     -0.6726      4.0818
C      8.6822     -0.2231      5.2151
C      6.3366      2.2970      4.6298
C      6.4863      0.5101      6.3351
C      8.0369      0.4304      6.4305
C      6.1347      0.7261      4.9276
22

O     10.4856     -1.6427      5.6039
O      5.6439      1.5452      2.5197
O      6.3624     -1.7654      4.3391
O      8.5522      0.0645      7.5743
O      6.9112     -0.3223      2.7973
H      9.2034      0.9432      5.2382
H      5.8256      0.7945      7.1704
H      6.6320      2.9061      1.3966
H      8.5926      0.7475      8.4741
H      9.0467     -1.1324      3.6197
H      7.9068      0.0036      4.5288
H      4.7065      1.6714      2.4975
H     10.7784     -2.5381      5.0352
N      6.8388      3.6105      2.2993
C      9.2595     -1.4437      4.6980
C      6.1131      2.6105      3.2619
C      6.7224     -0.6446      4.0722
C      8.7105     -0.1974      5.2282
C      6.3316      2.3184      4.6164
C      6.5078      0.5324      6.3474
C      8.0155      0.4318      6.4318
C      6.1522      0.7289      4.9444
22

O     10.4826     -1.6506      5.5923
O      5.6251      1.5152      2.5027
O      6.3583     -1.7705      4.3071
O      8.5611      0.0621      7.5728
O      6.8949     -0.3220      2.8135
H      9.2293      0.9658      5.2655
H      5.8274      0.8364      7.2186
H      6.5914      2.9020      1.4118
H      8.5572      0.8090      8.5092
H      9.1502     -1.1946      3.6096
H      7.8694     -0.0057      4.4435
H      4.6691      1.7179      2.5099
H     10.7201     -2.4657      4.9395
N      6.8215      3.6022      2.3147
C      9.2543     -1.4212      4.6745
C      6.1036      2.6258      3.2536
C      6.7128     -0.6114      4.0591
C      8.7371     -0.1673      5.2431
C      6.3211      2.3334      4.5968
C      6.5346      0.5511      6.3579
C      7.9945      0.4296      6.4347
C      6.1719      0.7341      4.9607
22

O     10.4805     -1.6599      5.5777
O      5.6053      1.4852      2.4853
O      6.3544     -1.7761      4.2772
O      8.5693      0.0609      7.5705
O      6.8788     -0.3220      2.8297
H      9.2573      0.9605      5.2885
H      5.8405      0.8752      7.2522
H      6.5613      2.9294      1.4554
H      8.5111      0.8751      8.5360
H      9.2674     -1.2612      3.6023
H      7.8542     -0.0178      4.3738
H      4.6303      1.7527      2.5199
H     10.6587     -2.3809      4.8622
N      6.8028      3.5867      2.3311
C      9.2481     -1.3996      4.6554
C      6.0982      2.6440      3.2442
C      6.7023     -0.5745      4.0437
C      8.7609     -0.1328      5.2578
C      6.3098      2.3443      4.5761
C      6.5650      0.5665      6.3672
C      7.9751      0.4230      6.4398
C      6.1906      0.7408      4.9757
22

O     10.4790     -1.6701      5.5603
O      5.5839      1.4561      2.4681
O      6.3510     -1.7818      4.2499
O      8.5764      0.0613      7.5672
O      6.8630     -0.3217      2.8447
H      9.2888      0.9254      5.3056
H      5.8687      0.9074      7.2637
H      6.5422      2.9829      1.5178
H      8.4580      0.9419      8.5565
H      9.3945     -1.3242      3.5934
H      7.8698     -0.0306      4.3307
H      4.6015      1.7719      2.5267
H     10.6004     -2.2927      4.8001
N      6.7829      3.5642      2.3491
C      9.2405     -1.3801      4.6421
C      6.0968      2.6644      3.2331
C      6.6904     -0.5355      4.0276
C      8.7816     -0.0948      5.2707
C      6.2999      2.3517      4.5566
C      6.5969      0.5791      6.3759
C      7.9588      0.4115      6.4471
C      6.2061      0.7484      4.9888
22

O     10.5295     -1.6183      5.6214
O      5.7509      1.7049      2.5815
O      6.3914     -1.7651      4.5871
O      8.4961      0.0675      7.5572
O      7.0189     -0.3602      2.7337
H      9.2504      0.4308      4.9228
H      5.7838      0.7271      7.0876
H      6.9816      3.0816      1.2985
H      8.5568      0.7428      8.3686
H      9.0632     -1.0748      3.8274
H      7.6514      0.1379      4.4042
H      4.7852      1.2131      2.5191
H     10.6242     -2.5197      5.9423
N      6.9363      3.5487      2.2944
C      9.3054     -1.5257      4.8560
C      6.2640      2.6318      3.3043
C      6.7692     -0.7029      4.0465
C      8.5402     -0.3200      5.2374
C      6.2851      2.1143      4.6462
C      6.4870      0.3630      6.2112
C      8.1223      0.3837      6.4251
C      6.0779      0.7376      4.8350
22

O     10.5232     -1.6226      5.6236
O      5.7413      1.6898      2.5810
O      6.3871     -1.7632      4.5524
O      8.5013      0.0718      7.5600
O      7.0055     -0.3500      2.7367
H      9.1966      0.4961      4.9923
H      5.7725      0.7124      7.0845
H      6.9419      3.1010      1.3714
H      8.5910      0.6885      8.3473
H      8.9648     -1.0529      3.7985
H      7.6913      0.1332      4.4533
H      4.7387      1.2731      2.4876
H     10.6967     -2.5265      5.8091
N      6.9247      3.5623      2.2776
C      9.3004     -1.5175      4.8389
C      6.2354      2.6142      3.3009
C      6.7662     -0.7123      4.0631
C      8.5633     -0.3093      5.2266
C      6.2945      2.1391      4.6404
C      6.4745      0.3772      6.2346
C      8.1178      0.3929      6.4297
C      6.0876      0.7369      4.8488
22

O     10.5162     -1.6252      5.6243
O      5.7294      1.6720      2.5774
O      6.3831     -1.7608      4.5165
O      8.5080      0.0746      7.5645
O      6.9912     -0.3415      2.7415
H      9.1613      0.5739      5.0501
H      5.7782      0.7019      7.0737
H      6.8972      3.1158      1.4511
H      8.6125      0.6435      8.3278
H      8.8992     -1.0371      3.7656
H      7.7563      0.1173      4.5181
H      4.7142      1.3413      2.4676
H     10.7617     -2.5520      5.6759
N      6.9122      3.5745      2.2656
C      9.2938     -1.5105      4.8194
C      6.2086      2.6010      3.2958
C      6.7616     -0.7171      4.0758
C      8.5861     -0.2967      5.2168
C      6.3047      2.1681      4.6367
C      6.4660      0.3979      6.2580
C      8.1082      0.4022      6.4318
C      6.0966      0.7348      4.8634
22

O     10.5088     -1.6267      5.6237
O      5.7152      1.6513      2.5709
O      6.3792     -1.7589      4.4800
O      8.5158      0.0755      7.5691
O      6.9760     -0.3347      2.7485
H      9.1462      0.6613      5.0979
H      5.7948      0.6985      7.0629
H      6.8482      3.1062      1.4966
H      8.6246      0.6192      8.3241
H      8.8674     -1.0295      3.7301
H      7.8378      0.0889      4.5875
H      4.7095      1.4137      2.4592
H     10.8137     -2.5869      5.5412
N      6.8988      3.5862      2.2608
C      9.2861     -1.5040      4.7976
C      6.1840      2.5926      3.2898
C      6.7554     -0.7162      4.0843
C      8.6081     -0.2819      5.2092
C      6.3151      2.2004      4.6350
C      6.4620      0.4253      6.2808
C      8.0944      0.4112      6.4320
C      6.1049      0.7318      4.8787
22

O     10.5016     -1.6285      5.6219
O      5.6987      1.6278      2.5615
O      6.3752     -1.7581      4.4435
O      8.5244      0.0742      7.5725
O      6.9602     -0.3294      2.7577
H      9.1476      0.7499      5.1387
H      5.8133      0.7055      7.0624
H      6.7942      3.0621      1.4888
H      8.6298      0.6222      8.3448
H      8.8688     -1.0327      3.6943
H      7.9150      0.0538      4.6411
H      4.7185      1.4861      2.4611
H     10.8443     -2.6122      5.4056
N      6.8848      3.5976      2.2638
C      9.2780     -1.4961      4.7739
C      6.1619      2.5895      3.2832
C      6.7480     -0.7087      4.0881
C      8.6303     -0.2646      5.2052
C      6.3252      2.2344      4.6349
C      6.4635      0.4554      6.3018
C      8.0773      0.4193      6.4313
C      6.1128      0.7287      4.8945
22

O     10.4951     -1.6316      5.6183
O      5.6808      1.6020      2.5495
O      6.3710     -1.7589      4.4076
O      8.5335      0.0714      7.5744
O      6.9440     -0.3257      2.7690
H      9.1603      0.8308      5.1749
H      5.8250      0.7248      7.0812
H      6.7369      2.9985      1.4491
H      8.6276      0.6495      8.3847
H      8.9013     -1.0494      3.6621
H      7.9561      0.0259      4.6522
H      4.7298      1.5545      2.4705
H     10.8478     -2.6148      5.2728
N      6.8703      3.6069      2.2728
C      9.2707     -1.4837      4.7491
C      6.1426      2.5917      3.2765
C      6.7399     -0.6941      4.0872
C      8.6547     -0.2451      5.2069
C      6.3334      2.2679      4.6346
C      6.4714      0.4842      6.3201
C      8.0578      0.4259      6.4306
C      6.1218      0.7263      4.9109
22

O     10.4898     -1.6363      5.6124
O      5.6623      1.5743      2.5354
O      6.3667     -1.7614      4.3726
O      8.5429      0.0678      7.5749
O      6.9277     -0.3234      2.7823
H      9.1799      0.8969      5.2080
H      5.8275      0.7555      7.1201
H      6.6815      2.9408      1.4114
H      8.6159      0.6933      8.4312
H      8.9620     -1.0825      3.6369
H      7.9463      0.0116      4.6085
H      4.7286      1.6165      2.4837
H     10.8241     -2.5897      5.1478
N      6.8551      3.6118      2.2852
C      9.2647     -1.4655      4.7235
C      6.1262      2.5988      3.2694
C      6.7314     -0.6726      4.0818
C      8.6822     -0.2231      5.2151
C      6.3366      2.2970      4.6298
C      6.4863      0.5101      6.3351
C      8.0369      0.4304      6.4305
C      6.1347      0.7261      4.9276
22

O     10.4856     -1.6427      5.6039
O      5.6439      1.5452      2.5197
O      6.3624     -1.7654      4.3391
O      8.5522      0.0645      7.5743
O      6.9112     -0.3223      2.7973
H      9.2034      0.9432      5.2382
H      5.8256      0.7945      7.1704
H      6.6320      2.9061      1.3966
H      8.5926      0.7475      8.4741
H      9.0467     -1.1324      3.6197
H      7.9068      0.0036      4.5288
H      4.7065      1.6714      2.4975
H     10.7784     -2.5381      5.0352
N      6.8388      3.6105      2.2993
C      9.2595     -1.4437      4.6980
C      6.1131      2.6105      3.2619
C      6.7224     -0.6446      4.0722
C      8.7105     -0.1974      5.2282
C      6.3316      2.3184      4.6164
C      6.5078      0.5324      6.3474
C      8.0155      0.4318      6.4318
C      6.1522      0.7289      4.9444
22

O     10.4826     -1.6506      5.5923
O      5.6251      1.5152      2.5027
O      6.3583     -1.7705      4.3071
O      8.5611      0.0621      7.5728
O      6.8949     -0.3220      2.8135
H      9.2293      0.9658      5.2655
H      5.8274      0.8364      7.2186
H      6.5914      2.9020      1.4118
H      8.5572      0.8090      8.5092
H      9.1502     -1.1946      3.6096
H      7.8694     -0.0057      4.4435
H      4.6691      1.7179      2.5099
H     10.7201     -2.4657      4.9395
N      6.8215      3.6022      2.3147
C      9.2543     -1.4212      4.6745
C      6.1036      2.6258      3.2536
C      6.7128     -0.6114      4.0591
C      8.7371     -0.1673      5.2431
C      6.3211      2.3334      4.5968
C      6.5346      0.5511      6.3579
C      7.9945      0.4296      6.4347
C      6.1719      0.7341      4.9607
22

O     10.4805     -1.6599      5.5777
O      5.6053      1.4852      2.4853
O      6.3544     -1.7761      4.2772
O      8.5693      0.0609      7.5705
O      6.8788     -0.3220      2.8297
H      9.2573      0.9605      5.2885
H      5.8405      0.8752      7.2522
H      6.5613      2.9294      1.4554
H      8.5111      0.8751      8.5360
H      9.2674     -1.2612      3.6023
H      7.8542     -0.0178      4.3738
H      4.6303      1.7527      2.5199
H     10.6587     -2.3809      4.8622
N      6.8028      3.5867      2.3311
C      9.2481     -1.3996      4.6554
C      6.0982      2.6440      3.2442
C      6.7023     -0.5745      4.0437
C      8.7609     -0.1328      5.2578
C      6.3098      2.3443      4.5761
C      6.5650      0.5665      6.3672
C      7.9751      0.4230      6.4398
C      6.1906      0.7408      4.9757
22

O     10.4790     -1.6701      5.5603
O      5.5839      1.4561      2.4681
O      6.3510     -1.7818      4.2499
O      8.5764      0.0613      7.5672
O      6.8630     -0.3217      2.8447
H      9.2888      0.9254      5.3056
H      5.8687      0.9074      7.2637
H      6.5422      2.9829      1.5178
H      8.4580      0.9419      8.5565
H      9.3945     -1.3242      3.5934
H      7.8698     -0.0306      4.3307
H      4.6015      1.7719      2.5267
H     10.6004     -2.2927      4.8001
N      6.7829      3.5642      2.3491
C      9.2405     -1.3801      4.6421
C      6.0968      2.6644      3.2331
C      6.6904     -0.5355      4.0276
C      8.7816     -0.0948      5.2707
C      6.2999      2.3517      4.5566
C      6.5969      0.5791      6.3759
C      7.9588      0.4115      6.4471
C      6.2061      0.7484      4.9888
