27

O      6.1620      1.4864      2.4897
O      6.9211     -1.4221      5.5533
O      9.6254     -1.9848      3.9382
O      8.4609      0.4793      7.6355
O      7.5848     -0.6364      3.4533
H      7.8120     -1.9745      5.5180
H      8.5596      2.1380      6.5000
H      6.5804      2.2246      6.5779
H      8.0341     -0.3401      7.5052
H      5.5037      1.1517      4.9327
H     10.6037     -0.2731      4.5013
H      8.1236      0.0705      3.0921
H      6.0790      0.6339      7.0617
H      9.5414     -1.6538      5.4661
H      7.7489     -0.6334      5.9361
H      6.9082      4.2117      2.7673
H      5.6726      3.6245      1.7698
H      7.2816      3.4123      4.8115
N      5.9399      3.7185      2.8263
C      9.7413     -0.9211      4.6600
C      6.0699      2.5111      3.1610
C      7.2303     -0.2340      4.5222
C      8.6799      0.3970      5.1552
C      6.7965      2.3395      4.4840
C      6.7670      1.1902      6.4297
C      8.3080      0.9948      6.4695
C      6.5184      0.9948      5.0075
27

O      6.1627      1.4895      2.4947
O      6.9078     -1.4134      5.5702
O      9.6281     -1.9949      3.9190
O      8.4625      0.4478      7.6142
O      7.5755     -0.6441      3.4548
H      7.8379     -1.9114      5.5466
H      8.5760      2.1783      6.5135
H      6.6668      2.1945      6.5321
H      7.9674     -0.4238      7.5342
H      5.4818      1.1370      4.9710
H     10.6558     -0.2734      4.4533
H      8.1519      0.1098      3.1158
H      6.0666      0.6222      7.0722
H      9.5064     -1.5495      5.4761
H      7.7095     -0.6729      5.9295
H      6.9449      4.2662      2.7324
H      5.6343      3.6663      1.7665
H      7.1871      3.4081      4.8565
N      5.9168      3.7059      2.8415
C      9.7701     -0.9190      4.6728
C      6.0812      2.5242      3.1776
C      7.2123     -0.2336      4.5213
C      8.6842      0.4024      5.1700
C      6.7921      2.3345      4.4599
C      6.7788      1.1759      6.4309
C      8.2988      1.0047      6.4472
C      6.5456      0.9887      5.0086
27

O      6.1626      1.4905      2.4985
O      6.8973     -1.4035      5.5874
O      9.6309     -2.0044      3.8974
O      8.4655      0.4140      7.5959
O      7.5642     -0.6532      3.4565
H      7.8427     -1.8562      5.5653
H      8.5985      2.1966      6.5246
H      6.7438      2.1864      6.5001
H      7.9089     -0.4925      7.5673
H      5.4524      1.1073      4.9995
H     10.7117     -0.2787      4.4062
H      8.1865      0.1575      3.1280
H      6.0627      0.6105      7.0830
H      9.4805     -1.4391      5.5198
H      7.6567     -0.7143      5.9189
H      6.9621      4.3288      2.7030
H      5.6108      3.7107      1.7886
H      7.0899      3.3738      4.9079
N      5.8907      3.6973      2.8513
C      9.7989     -0.9159      4.6861
C      6.0950      2.5329      3.1980
C      7.1972     -0.2290      4.5250
C      8.6894      0.4071      5.1822
C      6.7929      2.3296      4.4339
C      6.7906      1.1609      6.4315
C      8.2886      1.0190      6.4247
C      6.5674      0.9835      5.0101
27

O      6.1618      1.4893      2.5011
O      6.8893     -1.3926      5.6048
O      9.6338     -2.0123      3.8747
O      8.4694      0.3777      7.5804
O      7.5513     -0.6629      3.4586
H      7.8274     -1.8151      5.5737
H      8.6246      2.1897      6.5323
H      6.8073      2.2013      6.4838
H      7.8681     -0.5288      7.6008
H      5.4278      1.0643      5.0172
H     10.7632     -0.2917      4.3640
H      8.2181      0.2018      3.1300
H      6.0698      0.6016      7.0910
H      9.4642     -1.3319      5.5932
H      7.5908     -0.7509      5.9122
H      6.9557      4.3998      2.6792
H      5.6016      3.7540      1.8337
H      6.9932      3.3100      4.9638
N      5.8620      3.6932      2.8558
C      9.8279     -0.9119      4.6983
C      6.1105      2.5369      3.2203
C      7.1856     -0.2213      4.5320
C      8.6959      0.4116      5.1904
C      6.7972      2.3250      4.4087
C      6.8020      1.1456      6.4316
C      8.2785      1.0369      6.4036
C      6.5819      0.9798      5.0117
27

O      6.1603      1.4860      2.5023
O      6.8830     -1.3816      5.6220
O      9.6369     -2.0183      3.8520
O      8.4739      0.3392      7.5673
O      7.5372     -0.6722      3.4616
H      7.7964     -1.7943      5.5710
H      8.6528      2.1588      6.5360
H      6.8542      2.2297      6.4835
H      7.8484     -0.5272      7.6304
H      5.4157      1.0114      5.0234
H     10.8045     -0.3130      4.3298
H      8.2409      0.2347      3.1213
H      6.0889      0.5965      7.0953
H      9.4610     -1.2311      5.6802
H      7.5180     -0.7720      5.9215
H      6.9277      4.4799      2.6601
H      5.6027      3.7932      1.8900
H      6.9008      3.2213      5.0231
N      5.8311      3.6929      2.8563
C      9.8568     -0.9079      4.7087
C      6.1260      2.5369      3.2418
C      7.1780     -0.2112      4.5411
C      8.7037      0.4159      5.1937
C      6.8024      2.3208      4.3878
C      6.8125      1.1314      6.4312
C      8.2695      1.0572      6.3855
C      6.5876      0.9782      5.0131
27

O      6.1620      1.4864      2.4897
O      6.9211     -1.4221      5.5533
O      9.6254     -1.9848      3.9382
O      8.4609      0.4793      7.6355
O      7.5848     -0.6364      3.4533
H      7.8120     -1.9745      5.5180
H      8.5596      2.1380      6.5000
H      6.5804      2.2246      6.5779
H      8.0341     -0.3401      7.5052
H      5.5037      1.1517      4.9327
H     10.6037     -0.2731      4.5013
H      8.1236      0.0705      3.0921
H      6.0790      0.6339      7.0617
H      9.5414     -1.6538      5.4661
H      7.7489     -0.6334      5.9361
H      6.9082      4.2117      2.7673
H      5.6726      3.6245      1.7698
H      7.2816      3.4123      4.8115
N      5.9399      3.7185      2.8263
C      9.7413     -0.9211      4.6600
C      6.0699      2.5111      3.1610
C      7.2303     -0.2340      4.5222
C      8.6799      0.3970      5.1552
C      6.7965      2.3395      4.4840
C      6.7670      1.1902      6.4297
C      8.3080      0.9948      6.4695
C      6.5184      0.9948      5.0075
27

O      6.1627      1.4895      2.4947
O      6.9078     -1.4134      5.5702
O      9.6281     -1.9949      3.9190
O      8.4625      0.4478      7.6142
O      7.5755     -0.6441      3.4548
H      7.8379     -1.9114      5.5466
H      8.5760      2.1783      6.5135
H      6.6668      2.1945      6.5321
H      7.9674     -0.4238      7.5342
H      5.4818      1.1370      4.9710
H     10.6558     -0.2734      4.4533
H      8.1519      0.1098      3.1158
H      6.0666      0.6222      7.0722
H      9.5064     -1.5495      5.4761
H      7.7095     -0.6729      5.9295
H      6.9449      4.2662      2.7324
H      5.6343      3.6663      1.7665
H      7.1871      3.4081      4.8565
N      5.9168      3.7059      2.8415
C      9.7701     -0.9190      4.6728
C      6.0812      2.5242      3.1776
C      7.2123     -0.2336      4.5213
C      8.6842      0.4024      5.1700
C      6.7921      2.3345      4.4599
C      6.7788      1.1759      6.4309
C      8.2988      1.0047      6.4472
C      6.5456      0.9887      5.0086
27

O      6.1626      1.4905      2.4985
O      6.8973     -1.4035      5.5874
O      9.6309     -2.0044      3.8974
O      8.4655      0.4140      7.5959
O      7.5642     -0.6532      3.4565
H      7.8427     -1.8562      5.5653
H      8.5985      2.1966      6.5246
H      6.7438      2.1864      6.5001
H      7.9089     -0.4925      7.5673
H      5.4524      1.1073      4.9995
H     10.7117     -0.2787      4.4062
H      8.1865      0.1575      3.1280
H      6.0627      0.6105      7.0830
H      9.4805     -1.4391      5.5198
H      7.6567     -0.7143      5.9189
H      6.9621      4.3288      2.7030
H      5.6108      3.7107      1.7886
H      7.0899      3.3738      4.9079
N      5.8907      3.6973      2.8513
C      9.7989     -0.9159      4.6861
C      6.0950      2.5329      3.1980
C      7.1972     -0.2290      4.5250
C      8.6894      0.4071      5.1822
C      6.7929      2.3296      4.4339
C      6.7906      1.1609      6.4315
C      8.2886      1.0190      6.4247
C      6.5674      0.9835      5.0101
27

O      6.1618      1.4893      2.5011
O      6.8893     -1.3926      5.6048
O      9.6338     -2.0123      3.8747
O      8.4694      0.3777      7.5804
O      7.5513     -0.6629      3.4586
H      7.8274     -1.8151      5.5737
H      8.6246      2.1897      6.5323
H      6.8073      2.2013      6.4838
H      7.8681     -0.5288      7.6008
H      5.4278      1.0643      5.0172
H     10.7632     -0.2917      4.3640
H      8.2181      0.2018      3.1300
H      6.0698      0.6016      7.0910
H      9.4642     -1.3319      5.5932
H      7.5908     -0.7509      5.9122
H      6.9557      4.3998      2.6792
H      5.6016      3.7540      1.8337
H      6.9932      3.3100      4.9638
N      5.8620      3.6932      2.8558
C      9.8279     -0.9119      4.6983
C      6.1105      2.5369      3.2203
C      7.1856     -0.2213      4.5320
C      8.6959      0.4116      5.1904
C      6.7972      2.3250      4.4087
C      6.8020      1.1456      6.4316
C      8.2785      1.0369      6.4036
C      6.5819      0.9798      5.0117
27

O      6.1603      1.4860      2.5023
O      6.8830     -1.3816      5.6220
O      9.6369     -2.0183      3.8520
O      8.4739      0.3392      7.5673
O      7.5372     -0.6722      3.4616
H      7.7964     -1.7943      5.5710
H      8.6528      2.1588      6.5360
H      6.8542      2.2297      6.4835
H      7.8484     -0.5272      7.6304
H      5.4157      1.0114      5.0234
H     10.8045     -0.3130      4.3298
H      8.2409      0.2347      3.1213
H      6.0889      0.5965      7.0953
H      9.4610     -1.2311      5.6802
H      7.5180     -0.7720      5.9215
H      6.9277      4.4799      2.6601
H      5.6027      3.7932      1.8900
H      6.9008      3.2213      5.0231
N      5.8311      3.6929      2.8563
C      9.8568     -0.9079      4.7087
C      6.1260      2.5369      3.2418
C      7.1780     -0.2112      4.5411
C      8.7037      0.4159      5.1937
C      6.8024      2.3208      4.3878
C      6.8125      1.1314      6.4312
C      8.2695      1.0572      6.3855
C      6.5876      0.9782      5.0131
