23

O      5.1919      2.7886      2.5809
O      7.9050      4.5578      5.0547
O      6.5224     -1.0175      4.1730
O      8.7942     -0.1286      7.6309
O      6.6375      0.7182      2.7091
H      7.4164      5.2867      5.7740
H      7.6846      0.4741      4.7507
H      6.0971      1.5765      7.2763
H      6.8701     -0.1999      2.6880
H      7.8258      4.3869      1.7208
H      9.5742      0.3128      7.8043
H      8.5025     -2.0992      5.1515
H      6.4215     -0.9789      3.2237
N      7.4973      3.9916      2.6907
C      9.1700     -1.2138      5.1218
C      6.6251      2.9674      2.8750
C      6.5074      0.3030      4.1453
C      8.4376      0.1365      5.3390
C      7.3777      5.1457      3.9254
C      6.7767      2.5895      4.1940
C      6.8265      1.1154      6.5506
C      8.0525      0.4326      6.7131
C      6.3071      1.3836      4.9898
23

O      5.1919      2.7886      2.5809
O      7.9050      4.5578      5.0547
O      6.5224     -1.0175      4.1730
O      8.7942     -0.1286      7.6309
O      6.6375      0.7182      2.7091
H      7.4164      5.2867      5.7740
H      7.6846      0.4741      4.7507
H      6.0971      1.5765      7.2763
H      6.8701     -0.1999      2.6880
H      7.8258      4.3869      1.7208
H      9.5742      0.3128      7.8043
H      8.5025     -2.0992      5.1515
H      6.4215     -0.9789      3.2237
N      7.4973      3.9916      2.6907
C      9.1700     -1.2138      5.1218
C      6.6251      2.9674      2.8750
C      6.5074      0.3030      4.1453
C      8.4376      0.1365      5.3390
C      7.3777      5.1457      3.9254
C      6.7767      2.5895      4.1940
C      6.8265      1.1154      6.5506
C      8.0525      0.4326      6.7131
C      6.3071      1.3836      4.9898
