29

O      5.3697      2.2704      3.0045
O      6.2516      4.9680      5.1707
O      9.2912     -1.1592      3.6134
O      7.9858     -0.7735      7.6596
O      4.7782      6.0322      3.6663
O      7.2302     -0.3905      3.3929
H      8.7388      1.2456      7.3740
H      7.1009      2.1684      7.1294
H      7.1963     -0.9387      8.1945
H      5.7009      1.4088      4.9803
H     10.9185     -0.1661      4.6295
H      6.1251      0.5143      6.9121
H     10.4541     -1.0607      5.4712
H      8.7984      1.4473      5.2642
H      7.2208      5.9556      3.5917
H      4.3575      6.9861      3.5699
H      8.1234      3.3082      4.5504
H      6.4206      4.1000      1.7522
H      7.0430      4.4312      5.2663
N      6.4306      4.3530      2.9686
C      9.8448     -0.4300      4.6913
C      6.4154      3.0851      3.5292
C      7.5531     -0.0110      4.6603
C      8.8748      0.3571      5.3904
C      6.1901      5.5326      3.9338
C      7.4558      2.4692      4.2940
C      6.8554      1.1568      6.6455
C      8.0744      0.4980      6.8681
C      6.7688      1.3286      5.0112
29

O      5.3875      2.2622      3.0173
O      6.2658      4.9851      5.1675
O      9.3144     -1.1576      3.6240
O      7.9831     -0.7662      7.6548
O      4.7677      6.0272      3.6840
O      7.2542     -0.3819      3.4133
H      8.6586      1.2223      7.4348
H      7.0298      2.1744      7.2113
H      7.1268     -0.9563      8.1510
H      5.7412      1.4041      5.0077
H     10.8521     -0.0180      4.6104
H      6.1448      0.5425      6.7745
H     10.4590     -1.0509      5.5361
H      8.7600      1.4216      5.2594
H      7.1575      5.9650      3.6556
H      4.4338      6.9065      3.5542
H      8.0051      3.2711      4.5772
H      6.3877      4.1078      1.7612
H      7.1484      4.4333      5.3865
N      6.4435      4.3322      2.9792
C      9.8421     -0.4242      4.6924
C      6.4236      3.0574      3.5354
C      7.5640     -0.0220      4.6461
C      8.8687      0.3622      5.4134
C      6.2051      5.5201      3.9270
C      7.4554      2.4727      4.2763
C      6.8651      1.1641      6.6287
C      8.0811      0.5023      6.8491
C      6.7776      1.3232      5.0108
29

O      5.4072      2.2556      3.0301
O      6.2840      4.9965      5.1638
O      9.3396     -1.1576      3.6350
O      7.9822     -0.7556      7.6492
O      4.7590      6.0190      3.7020
O      7.2779     -0.3728      3.4324
H      8.5897      1.1958      7.5020
H      6.9392      2.1629      7.2839
H      7.0682     -0.9609      8.1045
H      5.7657      1.3970      5.0188
H     10.7807      0.1438      4.5723
H      6.1145      0.5385      6.6511
H     10.4410     -1.0413      5.5852
H      8.7382      1.4047      5.2518
H      7.0923      6.0016      3.7212
H      4.5111      6.8490      3.5334
H      7.9118      3.2513      4.6254
H      6.3442      4.1315      1.8275
H      7.2363      4.4493      5.4993
N      6.4551      4.3098      2.9876
C      9.8422     -0.4203      4.6968
C      6.4308      3.0284      3.5398
C      7.5733     -0.0306      4.6339
C      8.8580      0.3673      5.4364
C      6.2194      5.5049      3.9168
C      7.4515      2.4747      4.2573
C      6.8761      1.1759      6.6089
C      8.0926      0.5041      6.8313
C      6.7887      1.3165      5.0135
29

O      5.4283      2.2499      3.0425
O      6.3065      5.0011      5.1602
O      9.3673     -1.1595      3.6476
O      7.9824     -0.7425      7.6432
O      4.7526      6.0056      3.7206
O      7.3008     -0.3635      3.4489
H      8.5367      1.1710      7.5735
H      6.8313      2.1306      7.3414
H      7.0303     -0.9509      8.0508
H      5.7677      1.3880      5.0136
H     10.7020      0.3092      4.5168
H      6.0475      0.5103      6.5420
H     10.4040     -1.0282      5.6090
H      8.7341      1.4021      5.2402
H      7.0429      6.0716      3.7781
H      4.5814      6.8514      3.4994
H      7.8528      3.2641      4.7029
H      6.2911      4.1683      1.9424
H      7.2959      4.4848      5.5981
N      6.4654      4.2863      2.9943
C      9.8453     -0.4178      4.7048
C      6.4364      2.9992      3.5418
C      7.5809     -0.0361      4.6252
C      8.8431      0.3716      5.4589
C      6.2312      5.4861      3.9037
C      7.4445      2.4732      4.2375
C      6.8868      1.1912      6.5870
C      8.1080      0.5036      6.8151
C      6.8023      1.3089      5.0187
29

O      5.4505      2.2442      3.0544
O      6.3332      4.9991      5.1571
O      9.3980     -1.1635      3.6631
O      7.9832     -0.7274      7.6368
O      4.7483      5.9873      3.7394
O      7.3224     -0.3543      3.4613
H      8.5009      1.1496      7.6441
H      6.7106      2.0776      7.3785
H      7.0173     -0.9280      7.9887
H      5.7517      1.3774      4.9926
H     10.6121      0.4653      4.4474
H      5.9733      0.4779      6.4507
H     10.3541     -1.0104      5.6024
H      8.7479      1.4139      5.2247
H      7.0127      6.1708      3.8191
H      4.6495      6.9074      3.4509
H      7.8199      3.2988      4.8032
H      6.2294      4.2142      2.0780
H      7.3248      4.5390      5.6786
N      6.4748      4.2630      3.0012
C      9.8514     -0.4153      4.7165
C      6.4403      2.9710      3.5408
C      7.5871     -0.0382      4.6218
C      8.8249      0.3746      5.4801
C      6.2406      5.4633      3.8882
C      7.4363      2.4684      4.2185
C      6.8951      1.2075      6.5635
C      8.1266      0.5016      6.8014
C      6.8177      1.3009      5.0259
29

O      5.4732      2.2380      3.0653
O      6.3637      4.9908      5.1549
O      9.4311     -1.1698      3.6811
O      7.9843     -0.7110      7.6300
O      4.7454      5.9672      3.7574
O      7.3422     -0.3455      3.4687
H      8.4820      1.1311      7.7067
H      6.5841      2.0069      7.3918
H      7.0278     -0.8952      7.9194
H      5.7294      1.3651      4.9575
H     10.5095      0.5974      4.3700
H      5.9144      0.4557      6.3832
H     10.2992     -0.9900      5.5665
H      8.7787      1.4347      5.2071
H      6.9886      6.2814      3.8416
H      4.7214      6.9733      3.3968
H      7.7996      3.3327      4.9089
H      6.1501      4.2658      2.1833
H      7.3233      4.6094      5.7375
N      6.4842      4.2405      3.0113
C      9.8605     -0.4115      4.7313
C      6.4423      2.9455      3.5365
C      7.5921     -0.0366      4.6252
C      8.8045      0.3765      5.4988
C      6.2488      5.4373      3.8711
C      7.4296      2.4615      4.2027
C      6.8997      1.2231      6.5390
C      8.1472      0.4990      6.7911
C      6.8336      1.2931      5.0343
29

O      5.4955      2.2317      3.0749
O      6.3976      4.9770      5.1539
O      9.4652     -1.1785      3.6997
O      7.9856     -0.6940      7.6230
O      4.7440      5.9473      3.7737
O      7.3601     -0.3372      3.4706
H      8.4792      1.1157      7.7549
H      6.4606      1.9232      7.3794
H      7.0536     -0.8557      7.8462
H      5.7131      1.3513      4.9114
H     10.3961      0.6958      4.2916
H      5.8815      0.4491      6.3434
H     10.2501     -0.9742      5.5126
H      8.8235      1.4562      5.1904
H      6.9560      6.3805      3.8457
H      4.7943      7.0175      3.3437
H      7.7830      3.3511      5.0031
H      6.0392      4.3240      2.2199
H      7.2920      4.6930      5.7716
N      6.4947      4.2192      3.0267
C      9.8717     -0.4048      4.7479
C      6.4423      2.9242      3.5288
C      7.5962     -0.0312      4.6362
C      8.7835      0.3773      5.5136
C      6.2571      5.4092      3.8532
C      7.4262      2.4530      4.1921
C      6.9004      1.2367      6.5142
C      8.1683      0.4970      6.7856
C      6.8484      1.2858      5.0426
29

O      5.5155      2.2273      3.0830
O      6.4339      4.9590      5.1541
O      9.4990     -1.1898      3.7171
O      7.9877     -0.6768      7.6153
O      4.7442      5.9282      3.7875
O      7.3758     -0.3294      3.4674
H      8.4915      1.1043      7.7840
H      6.3460      1.8309      7.3433
H      7.0784     -0.8123      7.7740
H      5.7109      1.3365      4.8587
H     10.2762      0.7593      4.2181
H      5.8787      0.4586      6.3319
H     10.2203     -0.9768      5.4634
H      8.8775      1.4706      5.1783
H      6.9087      6.4506      3.8322
H      4.8610      7.0291      3.2921
H      7.7649      3.3489      5.0732
H      5.9055      4.3864      2.2097
H      7.2356      4.7866      5.7805
N      6.5060      4.1997      3.0450
C      9.8838     -0.3934      4.7644
C      6.4406      2.9077      3.5182
C      7.5993     -0.0223      4.6545
C      8.7637      0.3771      5.5231
C      6.2666      5.3805      3.8356
C      7.4274      2.4432      4.1881
C      6.8974      1.2474      6.4903
C      8.1885      0.4965      6.7863
C      6.8608      1.2794      5.0496
29

O      5.5318      2.2259      3.0885
O      6.4715      4.9381      5.1550
O      9.5316     -1.2031      3.7324
O      7.9913     -0.6598      7.6071
O      4.7462      5.9102      3.7988
O      7.3894     -0.3221      3.4602
H      8.5182      1.0983      7.7913
H      6.2449      1.7364      7.2878
H      7.0826     -0.7696      7.7075
H      5.7267      1.3209      4.8050
H     10.1559      0.7900      4.1531
H      5.9055      0.4807      6.3464
H     10.2210     -1.0115      5.4414
H      8.9343      1.4724      5.1740
H      6.8469      6.4822      3.8032
H      4.9146      7.0089      3.2397
H      7.7424      3.3254      5.1121
H      5.7816      4.4441      2.1964
H      7.1694      4.8854      5.7728
N      6.5160      4.1828      3.0620
C      9.8955     -0.3761      4.7790
C      6.4383      2.8965      3.5055
C      7.6011     -0.0105      4.6791
C      8.7469      0.3761      5.5265
C      6.2774      5.3522      3.8195
C      7.4336      2.4320      4.1909
C      6.8910      1.2546      6.4687
C      8.2069      0.4984      6.7939
C      6.8699      1.2741      5.0539
29

O      5.5443      2.2251      3.0912
O      6.5080      4.9154      5.1550
O      9.5627     -1.2182      3.7452
O      7.9966     -0.6434      7.5982
O      4.7500      5.8930      3.8075
O      7.4012     -0.3154      3.4506
H      8.5584      1.0989      7.7759
H      6.1599      1.6484      7.2199
H      7.0591     -0.7288      7.6487
H      5.7602      1.3048      4.7563
H     10.0427      0.7913      4.0988
H      5.9584      0.5084      6.3813
H     10.2516     -1.0751      5.4474
H      8.9875      1.4595      5.1795
H      6.7744      6.4717      3.7609
H      4.9500      6.9612      3.1853
H      7.7142      3.2819      5.1164
H      5.6921      4.4900      2.2020
H      7.1243      4.9878      5.7746
N      6.5236      4.1691      3.0755
C      9.9063     -0.3531      4.7912
C      6.4369      2.8908      3.4922
C      7.6014      0.0035      4.7079
C      8.7347      0.3742      5.5237
C      6.2893      5.3252      3.8060
C      7.4445      2.4198      4.2002
C      6.8819      1.2579      6.4506
C      8.2229      0.5031      6.8088
C      6.8750      1.2704      5.0544
29

O      5.5532      2.2218      3.0911
O      6.5417      4.8909      5.1524
O      9.5921     -1.2344      3.7555
O      8.0025     -0.6281      7.5888
O      4.7555      5.8766      3.8136
O      7.4116     -0.3091      3.4401
H      8.6113      1.1069      7.7389
H      6.0911      1.5775      7.1479
H      7.0197     -0.6867      7.5972
H      5.8076      1.2883      4.7180
H      9.9436      0.7661      4.0559
H      6.0303      0.5299      6.4284
H     10.3020     -1.1452      5.4638
H      9.0313      1.4329      5.1955
H      6.6975      6.4212      3.7081
H      4.9647      6.8907      3.1306
H      7.6810      3.2223      5.0873
H      5.6466      4.5216      2.2304
H      7.1238      5.1014      5.8124
N      6.5283      4.1591      3.0844
C      9.9164     -0.3268      4.8024
C      6.4382      2.8902      3.4796
C      7.5998      0.0187      4.7386
C      8.7281      0.3715      5.5155
C      6.3021      5.3003      3.7960
C      7.4594      2.4070      4.2150
C      6.8704      1.2574      6.4371
C      8.2366      0.5109      6.8301
C      6.8761      1.2683      5.0505
29

O      5.5585      2.2150      3.0882
O      6.5736      4.8648      5.1480
O      9.6200     -1.2512      3.7635
O      8.0076     -0.6143      7.5792
O      4.7627      5.8609      3.8172
O      7.4208     -0.3031      3.4303
H      8.6763      1.1231      7.6846
H      6.0362      1.5343      7.0804
H      6.9834     -0.6415      7.5538
H      5.8604      1.2714      4.6927
H      9.8647      0.7174      4.0242
H      6.1102      0.5290      6.4793
H     10.3615     -1.1988      5.4741
H      9.0602      1.3973      5.2196
H      6.6248      6.3394      3.6463
H      4.9587      6.8015      3.0805
H      7.6459      3.1530      5.0310
H      5.6463      4.5379      2.2784
H      7.1508      5.2303      5.8739
N      6.5302      4.1528      3.0879
C      9.9261     -0.2999      4.8132
C      6.4435      2.8937      3.4691
C      7.5960      0.0339      4.7690
C      8.7278      0.3678      5.5037
C      6.3151      5.2780      3.7906
C      7.4773      2.3937      4.2339
C      6.8578      1.2538      6.4291
C      8.2483      0.5221      6.8562
C      6.8734      1.2680      5.0421
29

O      5.5607      2.2053      3.0827
O      6.6056      4.8378      5.1440
O      9.6464     -1.2682      3.7701
O      8.0109     -0.6021      7.5695
O      4.7712      5.8457      3.8184
O      7.4292     -0.2975      3.4219
H      8.7534      1.1487      7.6205
H      5.9914      1.5266      7.0237
H      6.9633     -0.5961      7.5210
H      5.9052      1.2544      4.6785
H      9.8110      0.6497      4.0035
H      6.1838      0.4865      6.5283
H     10.4227     -1.2219      5.4697
H      9.0712      1.3607      5.2478
H      6.5672      6.2446      3.5757
H      4.9341      6.6970      3.0422
H      7.6151      3.0878      4.9641
H      5.6899      4.5373      2.3426
H      7.1726      5.3616      5.9254
N      6.5294      4.1504      3.0856
C      9.9355     -0.2744      4.8234
C      6.4531      2.8995      3.4614
C      7.5898      0.0480      4.7969
C      8.7337      0.3631      5.4908
C      6.3277      5.2581      3.7906
C      7.4967      2.3800      4.2546
C      6.8454      1.2482      6.4267
C      8.2581      0.5363      6.8847
C      6.8678      1.2695      5.0303
29

O      5.5602      2.1939      3.0749
O      6.6386      4.8113      5.1415
O      9.6717     -1.2850      3.7758
O      8.0119     -0.5914      7.5600
O      4.7808      5.8310      3.8171
O      7.4370     -0.2923      3.4155
H      8.8426      1.1842      7.5546
H      5.9542      1.5553      6.9796
H      6.9650     -0.5539      7.5007
H      5.9250      1.2370      4.6692
H      9.7859      0.5696      3.9935
H      6.2437      0.3942      6.5745
H     10.4806     -1.2081      5.4479
H      9.0662      1.3338      5.2755
H      6.5359      6.1639      3.4933
H      4.8949      6.5797      3.0222
H      7.5963      3.0527      4.9162
H      5.7715      4.5193      2.4184
H      7.1724      5.4790      5.9472
N      6.5261      4.1513      3.0774
C      9.9447     -0.2519      4.8325
C      6.4667      2.9054      3.4568
C      7.5811      0.0599      4.8206
C      8.7454      0.3572      5.4787
C      6.3391      5.2395      3.7966
C      7.5164      2.3647      4.2739
C      6.8340      1.2414      6.4299
C      8.2665      0.5535      6.9134
C      6.8605      1.2724      5.0164
29

O      5.5580      2.1822      3.0650
O      6.6727      4.7861      5.1410
O      9.6964     -1.3021      3.7818
O      8.0108     -0.5823      7.5508
O      4.7912      5.8162      3.8138
O      7.4447     -0.2875      3.4114
H      8.9415      1.2270      7.4919
H      5.9256      1.6134      6.9462
H      6.9885     -0.5175      7.4939
H      5.9086      1.2191      4.6586
H      9.7907      0.4869      3.9922
H      6.2943      0.2673      6.6170
H     10.5326     -1.1567      5.4101
H      9.0482      1.3274      5.2983
H      6.5374      6.1191      3.3952
H      4.8464      6.4533      3.0222
H      7.5943      3.0728      4.9130
H      5.8694      4.4891      2.4875
H      7.1467      5.5711      5.9328
N      6.5215      4.1548      3.0644
C      9.9536     -0.2341      4.8399
C      6.4833      2.9091      3.4552
C      7.5705      0.0684      4.8389
C      8.7617      0.3499      5.4691
C      6.3491      5.2211      3.8091
C      7.5353      2.3469      4.2890
C      6.8230      1.2332      6.4384
C      8.2735      0.5734      6.9404
C      6.8524      1.2764      5.0025
29

O      5.5547      2.1716      3.0536
O      6.7076      4.7631      5.1424
O      9.7211     -1.3201      3.7890
O      8.0082     -0.5746      7.5424
O      4.8024      5.8008      3.8094
O      7.4525     -0.2831      3.4097
H      9.0437      1.2708      7.4333
H      5.9094      1.6883      6.9207
H      7.0278     -0.4878      7.5005
H      5.8594      1.2010      4.6455
H      9.8238      0.4131      3.9947
H      6.3420      0.1340      6.6535
H     10.5789     -1.0720      5.3607
H      9.0202      1.3461      5.3129
H      6.5698      6.1092      3.2858
H      4.7935      6.3269      3.0324
H      7.6077      3.1414      4.9493
H      5.9363      4.4635      2.5084
H      7.0977      5.6304      5.8820
N      6.5185      4.1589      3.0496
C      9.9621     -0.2222      4.8449
C      6.5018      2.9092      3.4560
C      7.5587      0.0731      4.8513
C      8.7810      0.3413      5.4628
C      6.3579      5.2038      3.8280
C      7.5529      2.3279      4.2995
C      6.8117      1.2229      6.4515
C      8.2798      0.5959      6.9651
C      6.8433      1.2809      4.9901
29

O      5.5513      2.1629      3.0411
O      6.7431      4.7428      5.1453
O      9.7455     -1.3392      3.7973
O      8.0051     -0.5685      7.5350
O      4.8143      5.7835      3.8059
O      7.4603     -0.2791      3.4104
H      9.1403      1.3078      7.3784
H      5.9097      1.7661      6.9014
H      7.0704     -0.4639      7.5198
H      5.7938      1.1839      4.6332
H      9.8832      0.3602      3.9930
H      6.3871      0.0183      6.6817
H     10.6232     -0.9637      5.3064
H      8.9835      1.3844      5.3184
H      6.6253      6.1162      3.1795
H      4.7382      6.2165      3.0265
H      7.6327      3.2269      4.9984
H      5.9333      4.4601      2.4443
H      7.0294      5.6525      5.7984
N      6.5197      4.1615      3.0364
C      9.9700     -0.2173      4.8469
C      6.5213      2.9048      3.4584
C      7.5464      0.0734      4.8577
C      8.8014      0.3324      5.4598
C      6.3660      5.1890      3.8514
C      7.5694      2.3112      4.3070
C      6.7998      1.2097      6.4687
C      8.2859      0.6211      6.9870
C      6.8322      1.2850      4.9803
29

O      5.3697      2.2704      3.0045
O      6.2516      4.9680      5.1707
O      9.2912     -1.1592      3.6134
O      7.9858     -0.7735      7.6596
O      4.7782      6.0322      3.6663
O      7.2302     -0.3905      3.3929
H      8.7388      1.2456      7.3740
H      7.1009      2.1684      7.1294
H      7.1963     -0.9387      8.1945
H      5.7009      1.4088      4.9803
H     10.9185     -0.1661      4.6295
H      6.1251      0.5143      6.9121
H     10.4541     -1.0607      5.4712
H      8.7984      1.4473      5.2642
H      7.2208      5.9556      3.5917
H      4.3575      6.9861      3.5699
H      8.1234      3.3082      4.5504
H      6.4206      4.1000      1.7522
H      7.0430      4.4312      5.2663
N      6.4306      4.3530      2.9686
C      9.8448     -0.4300      4.6913
C      6.4154      3.0851      3.5292
C      7.5531     -0.0110      4.6603
C      8.8748      0.3571      5.3904
C      6.1901      5.5326      3.9338
C      7.4558      2.4692      4.2940
C      6.8554      1.1568      6.6455
C      8.0744      0.4980      6.8681
C      6.7688      1.3286      5.0112
29

O      5.3875      2.2622      3.0173
O      6.2658      4.9851      5.1675
O      9.3144     -1.1576      3.6240
O      7.9831     -0.7662      7.6548
O      4.7677      6.0272      3.6840
O      7.2542     -0.3819      3.4133
H      8.6586      1.2223      7.4348
H      7.0298      2.1744      7.2113
H      7.1268     -0.9563      8.1510
H      5.7412      1.4041      5.0077
H     10.8521     -0.0180      4.6104
H      6.1448      0.5425      6.7745
H     10.4590     -1.0509      5.5361
H      8.7600      1.4216      5.2594
H      7.1575      5.9650      3.6556
H      4.4338      6.9065      3.5542
H      8.0051      3.2711      4.5772
H      6.3877      4.1078      1.7612
H      7.1484      4.4333      5.3865
N      6.4435      4.3322      2.9792
C      9.8421     -0.4242      4.6924
C      6.4236      3.0574      3.5354
C      7.5640     -0.0220      4.6461
C      8.8687      0.3622      5.4134
C      6.2051      5.5201      3.9270
C      7.4554      2.4727      4.2763
C      6.8651      1.1641      6.6287
C      8.0811      0.5023      6.8491
C      6.7776      1.3232      5.0108
29

O      5.4072      2.2556      3.0301
O      6.2840      4.9965      5.1638
O      9.3396     -1.1576      3.6350
O      7.9822     -0.7556      7.6492
O      4.7590      6.0190      3.7020
O      7.2779     -0.3728      3.4324
H      8.5897      1.1958      7.5020
H      6.9392      2.1629      7.2839
H      7.0682     -0.9609      8.1045
H      5.7657      1.3970      5.0188
H     10.7807      0.1438      4.5723
H      6.1145      0.5385      6.6511
H     10.4410     -1.0413      5.5852
H      8.7382      1.4047      5.2518
H      7.0923      6.0016      3.7212
H      4.5111      6.8490      3.5334
H      7.9118      3.2513      4.6254
H      6.3442      4.1315      1.8275
H      7.2363      4.4493      5.4993
N      6.4551      4.3098      2.9876
C      9.8422     -0.4203      4.6968
C      6.4308      3.0284      3.5398
C      7.5733     -0.0306      4.6339
C      8.8580      0.3673      5.4364
C      6.2194      5.5049      3.9168
C      7.4515      2.4747      4.2573
C      6.8761      1.1759      6.6089
C      8.0926      0.5041      6.8313
C      6.7887      1.3165      5.0135
29

O      5.4283      2.2499      3.0425
O      6.3065      5.0011      5.1602
O      9.3673     -1.1595      3.6476
O      7.9824     -0.7425      7.6432
O      4.7526      6.0056      3.7206
O      7.3008     -0.3635      3.4489
H      8.5367      1.1710      7.5735
H      6.8313      2.1306      7.3414
H      7.0303     -0.9509      8.0508
H      5.7677      1.3880      5.0136
H     10.7020      0.3092      4.5168
H      6.0475      0.5103      6.5420
H     10.4040     -1.0282      5.6090
H      8.7341      1.4021      5.2402
H      7.0429      6.0716      3.7781
H      4.5814      6.8514      3.4994
H      7.8528      3.2641      4.7029
H      6.2911      4.1683      1.9424
H      7.2959      4.4848      5.5981
N      6.4654      4.2863      2.9943
C      9.8453     -0.4178      4.7048
C      6.4364      2.9992      3.5418
C      7.5809     -0.0361      4.6252
C      8.8431      0.3716      5.4589
C      6.2312      5.4861      3.9037
C      7.4445      2.4732      4.2375
C      6.8868      1.1912      6.5870
C      8.1080      0.5036      6.8151
C      6.8023      1.3089      5.0187
29

O      5.4505      2.2442      3.0544
O      6.3332      4.9991      5.1571
O      9.3980     -1.1635      3.6631
O      7.9832     -0.7274      7.6368
O      4.7483      5.9873      3.7394
O      7.3224     -0.3543      3.4613
H      8.5009      1.1496      7.6441
H      6.7106      2.0776      7.3785
H      7.0173     -0.9280      7.9887
H      5.7517      1.3774      4.9926
H     10.6121      0.4653      4.4474
H      5.9733      0.4779      6.4507
H     10.3541     -1.0104      5.6024
H      8.7479      1.4139      5.2247
H      7.0127      6.1708      3.8191
H      4.6495      6.9074      3.4509
H      7.8199      3.2988      4.8032
H      6.2294      4.2142      2.0780
H      7.3248      4.5390      5.6786
N      6.4748      4.2630      3.0012
C      9.8514     -0.4153      4.7165
C      6.4403      2.9710      3.5408
C      7.5871     -0.0382      4.6218
C      8.8249      0.3746      5.4801
C      6.2406      5.4633      3.8882
C      7.4363      2.4684      4.2185
C      6.8951      1.2075      6.5635
C      8.1266      0.5016      6.8014
C      6.8177      1.3009      5.0259
29

O      5.4732      2.2380      3.0653
O      6.3637      4.9908      5.1549
O      9.4311     -1.1698      3.6811
O      7.9843     -0.7110      7.6300
O      4.7454      5.9672      3.7574
O      7.3422     -0.3455      3.4687
H      8.4820      1.1311      7.7067
H      6.5841      2.0069      7.3918
H      7.0278     -0.8952      7.9194
H      5.7294      1.3651      4.9575
H     10.5095      0.5974      4.3700
H      5.9144      0.4557      6.3832
H     10.2992     -0.9900      5.5665
H      8.7787      1.4347      5.2071
H      6.9886      6.2814      3.8416
H      4.7214      6.9733      3.3968
H      7.7996      3.3327      4.9089
H      6.1501      4.2658      2.1833
H      7.3233      4.6094      5.7375
N      6.4842      4.2405      3.0113
C      9.8605     -0.4115      4.7313
C      6.4423      2.9455      3.5365
C      7.5921     -0.0366      4.6252
C      8.8045      0.3765      5.4988
C      6.2488      5.4373      3.8711
C      7.4296      2.4615      4.2027
C      6.8997      1.2231      6.5390
C      8.1472      0.4990      6.7911
C      6.8336      1.2931      5.0343
29

O      5.4955      2.2317      3.0749
O      6.3976      4.9770      5.1539
O      9.4652     -1.1785      3.6997
O      7.9856     -0.6940      7.6230
O      4.7440      5.9473      3.7737
O      7.3601     -0.3372      3.4706
H      8.4792      1.1157      7.7549
H      6.4606      1.9232      7.3794
H      7.0536     -0.8557      7.8462
H      5.7131      1.3513      4.9114
H     10.3961      0.6958      4.2916
H      5.8815      0.4491      6.3434
H     10.2501     -0.9742      5.5126
H      8.8235      1.4562      5.1904
H      6.9560      6.3805      3.8457
H      4.7943      7.0175      3.3437
H      7.7830      3.3511      5.0031
H      6.0392      4.3240      2.2199
H      7.2920      4.6930      5.7716
N      6.4947      4.2192      3.0267
C      9.8717     -0.4048      4.7479
C      6.4423      2.9242      3.5288
C      7.5962     -0.0312      4.6362
C      8.7835      0.3773      5.5136
C      6.2571      5.4092      3.8532
C      7.4262      2.4530      4.1921
C      6.9004      1.2367      6.5142
C      8.1683      0.4970      6.7856
C      6.8484      1.2858      5.0426
29

O      5.5155      2.2273      3.0830
O      6.4339      4.9590      5.1541
O      9.4990     -1.1898      3.7171
O      7.9877     -0.6768      7.6153
O      4.7442      5.9282      3.7875
O      7.3758     -0.3294      3.4674
H      8.4915      1.1043      7.7840
H      6.3460      1.8309      7.3433
H      7.0784     -0.8123      7.7740
H      5.7109      1.3365      4.8587
H     10.2762      0.7593      4.2181
H      5.8787      0.4586      6.3319
H     10.2203     -0.9768      5.4634
H      8.8775      1.4706      5.1783
H      6.9087      6.4506      3.8322
H      4.8610      7.0291      3.2921
H      7.7649      3.3489      5.0732
H      5.9055      4.3864      2.2097
H      7.2356      4.7866      5.7805
N      6.5060      4.1997      3.0450
C      9.8838     -0.3934      4.7644
C      6.4406      2.9077      3.5182
C      7.5993     -0.0223      4.6545
C      8.7637      0.3771      5.5231
C      6.2666      5.3805      3.8356
C      7.4274      2.4432      4.1881
C      6.8974      1.2474      6.4903
C      8.1885      0.4965      6.7863
C      6.8608      1.2794      5.0496
29

O      5.5318      2.2259      3.0885
O      6.4715      4.9381      5.1550
O      9.5316     -1.2031      3.7324
O      7.9913     -0.6598      7.6071
O      4.7462      5.9102      3.7988
O      7.3894     -0.3221      3.4602
H      8.5182      1.0983      7.7913
H      6.2449      1.7364      7.2878
H      7.0826     -0.7696      7.7075
H      5.7267      1.3209      4.8050
H     10.1559      0.7900      4.1531
H      5.9055      0.4807      6.3464
H     10.2210     -1.0115      5.4414
H      8.9343      1.4724      5.1740
H      6.8469      6.4822      3.8032
H      4.9146      7.0089      3.2397
H      7.7424      3.3254      5.1121
H      5.7816      4.4441      2.1964
H      7.1694      4.8854      5.7728
N      6.5160      4.1828      3.0620
C      9.8955     -0.3761      4.7790
C      6.4383      2.8965      3.5055
C      7.6011     -0.0105      4.6791
C      8.7469      0.3761      5.5265
C      6.2774      5.3522      3.8195
C      7.4336      2.4320      4.1909
C      6.8910      1.2546      6.4687
C      8.2069      0.4984      6.7939
C      6.8699      1.2741      5.0539
29

O      5.5443      2.2251      3.0912
O      6.5080      4.9154      5.1550
O      9.5627     -1.2182      3.7452
O      7.9966     -0.6434      7.5982
O      4.7500      5.8930      3.8075
O      7.4012     -0.3154      3.4506
H      8.5584      1.0989      7.7759
H      6.1599      1.6484      7.2199
H      7.0591     -0.7288      7.6487
H      5.7602      1.3048      4.7563
H     10.0427      0.7913      4.0988
H      5.9584      0.5084      6.3813
H     10.2516     -1.0751      5.4474
H      8.9875      1.4595      5.1795
H      6.7744      6.4717      3.7609
H      4.9500      6.9612      3.1853
H      7.7142      3.2819      5.1164
H      5.6921      4.4900      2.2020
H      7.1243      4.9878      5.7746
N      6.5236      4.1691      3.0755
C      9.9063     -0.3531      4.7912
C      6.4369      2.8908      3.4922
C      7.6014      0.0035      4.7079
C      8.7347      0.3742      5.5237
C      6.2893      5.3252      3.8060
C      7.4445      2.4198      4.2002
C      6.8819      1.2579      6.4506
C      8.2229      0.5031      6.8088
C      6.8750      1.2704      5.0544
29

O      5.5532      2.2218      3.0911
O      6.5417      4.8909      5.1524
O      9.5921     -1.2344      3.7555
O      8.0025     -0.6281      7.5888
O      4.7555      5.8766      3.8136
O      7.4116     -0.3091      3.4401
H      8.6113      1.1069      7.7389
H      6.0911      1.5775      7.1479
H      7.0197     -0.6867      7.5972
H      5.8076      1.2883      4.7180
H      9.9436      0.7661      4.0559
H      6.0303      0.5299      6.4284
H     10.3020     -1.1452      5.4638
H      9.0313      1.4329      5.1955
H      6.6975      6.4212      3.7081
H      4.9647      6.8907      3.1306
H      7.6810      3.2223      5.0873
H      5.6466      4.5216      2.2304
H      7.1238      5.1014      5.8124
N      6.5283      4.1591      3.0844
C      9.9164     -0.3268      4.8024
C      6.4382      2.8902      3.4796
C      7.5998      0.0187      4.7386
C      8.7281      0.3715      5.5155
C      6.3021      5.3003      3.7960
C      7.4594      2.4070      4.2150
C      6.8704      1.2574      6.4371
C      8.2366      0.5109      6.8301
C      6.8761      1.2683      5.0505
29

O      5.5585      2.2150      3.0882
O      6.5736      4.8648      5.1480
O      9.6200     -1.2512      3.7635
O      8.0076     -0.6143      7.5792
O      4.7627      5.8609      3.8172
O      7.4208     -0.3031      3.4303
H      8.6763      1.1231      7.6846
H      6.0362      1.5343      7.0804
H      6.9834     -0.6415      7.5538
H      5.8604      1.2714      4.6927
H      9.8647      0.7174      4.0242
H      6.1102      0.5290      6.4793
H     10.3615     -1.1988      5.4741
H      9.0602      1.3973      5.2196
H      6.6248      6.3394      3.6463
H      4.9587      6.8015      3.0805
H      7.6459      3.1530      5.0310
H      5.6463      4.5379      2.2784
H      7.1508      5.2303      5.8739
N      6.5302      4.1528      3.0879
C      9.9261     -0.2999      4.8132
C      6.4435      2.8937      3.4691
C      7.5960      0.0339      4.7690
C      8.7278      0.3678      5.5037
C      6.3151      5.2780      3.7906
C      7.4773      2.3937      4.2339
C      6.8578      1.2538      6.4291
C      8.2483      0.5221      6.8562
C      6.8734      1.2680      5.0421
29

O      5.5607      2.2053      3.0827
O      6.6056      4.8378      5.1440
O      9.6464     -1.2682      3.7701
O      8.0109     -0.6021      7.5695
O      4.7712      5.8457      3.8184
O      7.4292     -0.2975      3.4219
H      8.7534      1.1487      7.6205
H      5.9914      1.5266      7.0237
H      6.9633     -0.5961      7.5210
H      5.9052      1.2544      4.6785
H      9.8110      0.6497      4.0035
H      6.1838      0.4865      6.5283
H     10.4227     -1.2219      5.4697
H      9.0712      1.3607      5.2478
H      6.5672      6.2446      3.5757
H      4.9341      6.6970      3.0422
H      7.6151      3.0878      4.9641
H      5.6899      4.5373      2.3426
H      7.1726      5.3616      5.9254
N      6.5294      4.1504      3.0856
C      9.9355     -0.2744      4.8234
C      6.4531      2.8995      3.4614
C      7.5898      0.0480      4.7969
C      8.7337      0.3631      5.4908
C      6.3277      5.2581      3.7906
C      7.4967      2.3800      4.2546
C      6.8454      1.2482      6.4267
C      8.2581      0.5363      6.8847
C      6.8678      1.2695      5.0303
29

O      5.5602      2.1939      3.0749
O      6.6386      4.8113      5.1415
O      9.6717     -1.2850      3.7758
O      8.0119     -0.5914      7.5600
O      4.7808      5.8310      3.8171
O      7.4370     -0.2923      3.4155
H      8.8426      1.1842      7.5546
H      5.9542      1.5553      6.9796
H      6.9650     -0.5539      7.5007
H      5.9250      1.2370      4.6692
H      9.7859      0.5696      3.9935
H      6.2437      0.3942      6.5745
H     10.4806     -1.2081      5.4479
H      9.0662      1.3338      5.2755
H      6.5359      6.1639      3.4933
H      4.8949      6.5797      3.0222
H      7.5963      3.0527      4.9162
H      5.7715      4.5193      2.4184
H      7.1724      5.4790      5.9472
N      6.5261      4.1513      3.0774
C      9.9447     -0.2519      4.8325
C      6.4667      2.9054      3.4568
C      7.5811      0.0599      4.8206
C      8.7454      0.3572      5.4787
C      6.3391      5.2395      3.7966
C      7.5164      2.3647      4.2739
C      6.8340      1.2414      6.4299
C      8.2665      0.5535      6.9134
C      6.8605      1.2724      5.0164
29

O      5.5580      2.1822      3.0650
O      6.6727      4.7861      5.1410
O      9.6964     -1.3021      3.7818
O      8.0108     -0.5823      7.5508
O      4.7912      5.8162      3.8138
O      7.4447     -0.2875      3.4114
H      8.9415      1.2270      7.4919
H      5.9256      1.6134      6.9462
H      6.9885     -0.5175      7.4939
H      5.9086      1.2191      4.6586
H      9.7907      0.4869      3.9922
H      6.2943      0.2673      6.6170
H     10.5326     -1.1567      5.4101
H      9.0482      1.3274      5.2983
H      6.5374      6.1191      3.3952
H      4.8464      6.4533      3.0222
H      7.5943      3.0728      4.9130
H      5.8694      4.4891      2.4875
H      7.1467      5.5711      5.9328
N      6.5215      4.1548      3.0644
C      9.9536     -0.2341      4.8399
C      6.4833      2.9091      3.4552
C      7.5705      0.0684      4.8389
C      8.7617      0.3499      5.4691
C      6.3491      5.2211      3.8091
C      7.5353      2.3469      4.2890
C      6.8230      1.2332      6.4384
C      8.2735      0.5734      6.9404
C      6.8524      1.2764      5.0025
29

O      5.5547      2.1716      3.0536
O      6.7076      4.7631      5.1424
O      9.7211     -1.3201      3.7890
O      8.0082     -0.5746      7.5424
O      4.8024      5.8008      3.8094
O      7.4525     -0.2831      3.4097
H      9.0437      1.2708      7.4333
H      5.9094      1.6883      6.9207
H      7.0278     -0.4878      7.5005
H      5.8594      1.2010      4.6455
H      9.8238      0.4131      3.9947
H      6.3420      0.1340      6.6535
H     10.5789     -1.0720      5.3607
H      9.0202      1.3461      5.3129
H      6.5698      6.1092      3.2858
H      4.7935      6.3269      3.0324
H      7.6077      3.1414      4.9493
H      5.9363      4.4635      2.5084
H      7.0977      5.6304      5.8820
N      6.5185      4.1589      3.0496
C      9.9621     -0.2222      4.8449
C      6.5018      2.9092      3.4560
C      7.5587      0.0731      4.8513
C      8.7810      0.3413      5.4628
C      6.3579      5.2038      3.8280
C      7.5529      2.3279      4.2995
C      6.8117      1.2229      6.4515
C      8.2798      0.5959      6.9651
C      6.8433      1.2809      4.9901
29

O      5.5513      2.1629      3.0411
O      6.7431      4.7428      5.1453
O      9.7455     -1.3392      3.7973
O      8.0051     -0.5685      7.5350
O      4.8143      5.7835      3.8059
O      7.4603     -0.2791      3.4104
H      9.1403      1.3078      7.3784
H      5.9097      1.7661      6.9014
H      7.0704     -0.4639      7.5198
H      5.7938      1.1839      4.6332
H      9.8832      0.3602      3.9930
H      6.3871      0.0183      6.6817
H     10.6232     -0.9637      5.3064
H      8.9835      1.3844      5.3184
H      6.6253      6.1162      3.1795
H      4.7382      6.2165      3.0265
H      7.6327      3.2269      4.9984
H      5.9333      4.4601      2.4443
H      7.0294      5.6525      5.7984
N      6.5197      4.1615      3.0364
C      9.9700     -0.2173      4.8469
C      6.5213      2.9048      3.4584
C      7.5464      0.0734      4.8577
C      8.8014      0.3324      5.4598
C      6.3660      5.1890      3.8514
C      7.5694      2.3112      4.3070
C      6.7998      1.2097      6.4687
C      8.2859      0.6211      6.9870
C      6.8322      1.2850      4.9803
