33

O      5.7071      2.0608      2.6588
O      5.7913     -1.2972      2.4681
O      6.7748      4.6147      5.2893
O      7.4641     -1.4143      5.4701
O      9.5970     -1.7125      3.7879
O      8.2954     -0.5688      7.6652
O      5.3592      5.4425      3.7811
O      7.5638     -0.2019      3.4727
H      6.5075     -1.6512      5.3398
H      9.0612      1.1971      6.9420
H      5.6546     -0.8945      4.3773
H      6.4709      1.7575      7.3447
H      8.4435      0.1961      8.2739
H      5.7480      0.9910      5.1014
H     10.3453     -0.0020      3.5648
H      6.1245     -0.5986      1.9618
H      9.2142      1.5274      5.2433
H      7.2205     -1.0151      6.3093
H      4.8580      5.9336      2.8062
H      8.1510      2.5539      4.6793
H      6.0250      4.3121      2.3136
H     10.4101     -2.4047      3.1596
N      6.8205      4.0985      2.8209
C      6.1343     -0.3249      3.4727
C     10.1367     -0.5029      4.4483
C      6.7123      2.7814      3.3291
C      7.6448      0.0100      4.7806
C      9.0333      0.4587      5.3133
C      6.7287      5.0999      3.9684
C      7.1271      2.2524      4.5373
C      6.6882      0.8531      6.8273
C      8.2566      0.3849      6.8115
C      6.6983      1.1034      5.2224
33

O      5.7086      2.0540      2.6336
O      5.7833     -1.2760      2.4798
O      6.7564      4.6187      5.2893
O      7.4681     -1.4059      5.4705
O      9.5712     -1.7092      3.7854
O      8.3186     -0.5625      7.6719
O      5.3571      5.4492      3.7675
O      7.5485     -0.2091      3.4871
H      6.5174     -1.6573      5.4610
H      9.1208      1.1543      6.9425
H      5.7386     -0.8988      4.4080
H      6.5273      1.7547      7.3198
H      8.4606      0.1686      8.3389
H      5.7189      0.9565      5.0370
H     10.3824      0.0529      3.5093
H      6.1250     -0.5543      1.9680
H      9.1645      1.5007      5.2438
H      7.2116     -1.0366      6.2513
H      4.8994      6.0040      2.8490
H      8.0320      2.5426      4.7143
H      6.1205      4.2391      2.2924
H     10.5205     -2.3726      3.2489
N      6.8329      4.0982      2.8203
C      6.1381     -0.3103      3.4568
C     10.1187     -0.5131      4.4478
C      6.7064      2.7684      3.3367
C      7.6506      0.0097      4.7584
C      9.0499      0.4478      5.2992
C      6.7575      5.0931      3.9847
C      7.1168      2.2538      4.5619
C      6.6924      0.8336      6.8305
C      8.2797      0.3897      6.8146
C      6.6902      1.1042      5.2106
33

O      5.7071      2.0608      2.6588
O      5.7913     -1.2972      2.4681
O      6.7748      4.6147      5.2893
O      7.4641     -1.4143      5.4701
O      9.5970     -1.7125      3.7879
O      8.2954     -0.5688      7.6652
O      5.3592      5.4425      3.7811
O      7.5638     -0.2019      3.4727
H      6.5075     -1.6512      5.3398
H      9.0612      1.1971      6.9420
H      5.6546     -0.8945      4.3773
H      6.4709      1.7575      7.3447
H      8.4435      0.1961      8.2739
H      5.7480      0.9910      5.1014
H     10.3453     -0.0020      3.5648
H      6.1245     -0.5986      1.9618
H      9.2142      1.5274      5.2433
H      7.2205     -1.0151      6.3093
H      4.8580      5.9336      2.8062
H      8.1510      2.5539      4.6793
H      6.0250      4.3121      2.3136
H     10.4101     -2.4047      3.1596
N      6.8205      4.0985      2.8209
C      6.1343     -0.3249      3.4727
C     10.1367     -0.5029      4.4483
C      6.7123      2.7814      3.3291
C      7.6448      0.0100      4.7806
C      9.0333      0.4587      5.3133
C      6.7287      5.0999      3.9684
C      7.1271      2.2524      4.5373
C      6.6882      0.8531      6.8273
C      8.2566      0.3849      6.8115
C      6.6983      1.1034      5.2224
33

O      5.7086      2.0540      2.6336
O      5.7833     -1.2760      2.4798
O      6.7564      4.6187      5.2893
O      7.4681     -1.4059      5.4705
O      9.5712     -1.7092      3.7854
O      8.3186     -0.5625      7.6719
O      5.3571      5.4492      3.7675
O      7.5485     -0.2091      3.4871
H      6.5174     -1.6573      5.4610
H      9.1208      1.1543      6.9425
H      5.7386     -0.8988      4.4080
H      6.5273      1.7547      7.3198
H      8.4606      0.1686      8.3389
H      5.7189      0.9565      5.0370
H     10.3824      0.0529      3.5093
H      6.1250     -0.5543      1.9680
H      9.1645      1.5007      5.2438
H      7.2116     -1.0366      6.2513
H      4.8994      6.0040      2.8490
H      8.0320      2.5426      4.7143
H      6.1205      4.2391      2.2924
H     10.5205     -2.3726      3.2489
N      6.8329      4.0982      2.8203
C      6.1381     -0.3103      3.4568
C     10.1187     -0.5131      4.4478
C      6.7064      2.7684      3.3367
C      7.6506      0.0097      4.7584
C      9.0499      0.4478      5.2992
C      6.7575      5.0931      3.9847
C      7.1168      2.2538      4.5619
C      6.6924      0.8336      6.8305
C      8.2797      0.3897      6.8146
C      6.6902      1.1042      5.2106
