33

O      6.1667      2.3247      2.3130
O      5.3582     -1.0510      2.2334
O      6.6241      4.5699      5.2947
O      7.2813     -1.4504      5.4380
O      8.8617     -1.3532      3.7676
O      9.1701     -0.2068      7.5473
O      5.4586      5.5259      3.4100
O      6.9266      0.0790      3.3019
H      6.4992     -1.4363      4.8585
H      9.7167      1.2814      7.4805
H      5.2905      0.8072      3.2639
H      5.4477     -0.4790      4.2702
H      7.0730      1.8769      7.8021
H      5.6704      4.3086      5.7339
H      8.2434     -0.3276      8.1571
H      5.5756      1.0682      5.5503
H     10.8837     -0.4295      3.8941
H      6.5960      0.1385      7.1889
H      8.8083      1.4496      4.6030
H      7.9646     -2.2713      5.8341
H      7.8987      2.6510      5.0404
H      7.2405      4.0352      2.1822
N      7.2460      3.9569      3.1022
C      5.4729     -0.2809      3.1711
C      9.9659     -0.6060      4.5566
C      6.8041      2.6484      3.3405
C      7.6075      0.1250      4.6845
C      8.9524      0.4621      5.0529
C      6.3022      4.9108      3.9231
C      7.0435      2.2041      4.5848
C      7.2972      1.1992      6.9138
C      8.8178      0.8258      6.6930
C      6.7447      1.0720      5.5267
33

O      6.1649      2.3318      2.3080
O      5.3414     -1.0478      2.2323
O      6.6159      4.5721      5.2887
O      7.2725     -1.4638      5.4234
O      8.8596     -1.3651      3.7620
O      9.1817     -0.2010      7.5334
O      5.4467      5.5174      3.4055
O      6.9101      0.0928      3.3018
H      6.3892     -1.5225      4.8925
H      9.6733      1.2800      7.5432
H      5.2139      0.8616      3.3350
H      5.3860     -0.4805      4.3134
H      7.1067      1.8342      7.8042
H      5.7179      4.3015      5.7402
H      8.2921     -0.4213      8.1371
H      5.5561      1.0608      5.4769
H     10.8743     -0.3927      4.0384
H      6.6622      0.2273      7.2336
H      8.8143      1.4222      4.5549
H      7.9282     -2.2047      5.8214
H      7.7718      2.6730      5.0439
H      7.2052      4.1409      2.1414
N      7.2467      3.9635      3.1030
C      5.4509     -0.2903      3.1370
C      9.9516     -0.5992      4.5718
C      6.8145      2.6601      3.3459
C      7.5930      0.1342      4.6999
C      8.9494      0.4619      5.0227
C      6.3136      4.8812      3.9331
C      7.0509      2.2189      4.6019
C      7.3072      1.2094      6.9166
C      8.8301      0.8307      6.6880
C      6.7431      1.0637      5.5511
33

O      6.1597      2.3390      2.3031
O      5.3236     -1.0462      2.2291
O      6.6068      4.5756      5.2811
O      7.2627     -1.4765      5.4086
O      8.8605     -1.3770      3.7544
O      9.1902     -0.1992      7.5210
O      5.4340      5.5097      3.4012
O      6.8981      0.1061      3.3033
H      6.2961     -1.6198      4.9348
H      9.6168      1.2966      7.5750
H      5.1138      0.9133      3.3907
H      5.3141     -0.4995      4.3551
H      7.1419      1.8031      7.7876
H      5.7692      4.2982      5.7512
H      8.3673     -0.5136      8.0985
H      5.5735      1.0497      5.4075
H     10.8631     -0.3539      4.1803
H      6.7460      0.3264      7.2864
H      8.8276      1.3839      4.5120
H      7.8815     -2.1266      5.7980
H      7.6881      2.7333      5.0743
H      7.1624      4.2511      2.0741
N      7.2454      3.9721      3.1079
C      5.4297     -0.2960      3.1070
C      9.9332     -0.5891      4.5837
C      6.8253      2.6722      3.3522
C      7.5738      0.1420      4.7150
C      8.9480      0.4612      4.9969
C      6.3296      4.8476      3.9432
C      7.0544      2.2329      4.6200
C      7.3174      1.2156      6.9190
C      8.8410      0.8374      6.6807
C      6.7394      1.0570      5.5721
33

O      6.1667      2.3247      2.3130
O      5.3582     -1.0510      2.2334
O      6.6241      4.5699      5.2947
O      7.2813     -1.4504      5.4380
O      8.8617     -1.3532      3.7676
O      9.1701     -0.2068      7.5473
O      5.4586      5.5259      3.4100
O      6.9266      0.0790      3.3019
H      6.4992     -1.4363      4.8585
H      9.7167      1.2814      7.4805
H      5.2905      0.8072      3.2639
H      5.4477     -0.4790      4.2702
H      7.0730      1.8769      7.8021
H      5.6704      4.3086      5.7339
H      8.2434     -0.3276      8.1571
H      5.5756      1.0682      5.5503
H     10.8837     -0.4295      3.8941
H      6.5960      0.1385      7.1889
H      8.8083      1.4496      4.6030
H      7.9646     -2.2713      5.8341
H      7.8987      2.6510      5.0404
H      7.2405      4.0352      2.1822
N      7.2460      3.9569      3.1022
C      5.4729     -0.2809      3.1711
C      9.9659     -0.6060      4.5566
C      6.8041      2.6484      3.3405
C      7.6075      0.1250      4.6845
C      8.9524      0.4621      5.0529
C      6.3022      4.9108      3.9231
C      7.0435      2.2041      4.5848
C      7.2972      1.1992      6.9138
C      8.8178      0.8258      6.6930
C      6.7447      1.0720      5.5267
33

O      6.1649      2.3318      2.3080
O      5.3414     -1.0478      2.2323
O      6.6159      4.5721      5.2887
O      7.2725     -1.4638      5.4234
O      8.8596     -1.3651      3.7620
O      9.1817     -0.2010      7.5334
O      5.4467      5.5174      3.4055
O      6.9101      0.0928      3.3018
H      6.3892     -1.5225      4.8925
H      9.6733      1.2800      7.5432
H      5.2139      0.8616      3.3350
H      5.3860     -0.4805      4.3134
H      7.1067      1.8342      7.8042
H      5.7179      4.3015      5.7402
H      8.2921     -0.4213      8.1371
H      5.5561      1.0608      5.4769
H     10.8743     -0.3927      4.0384
H      6.6622      0.2273      7.2336
H      8.8143      1.4222      4.5549
H      7.9282     -2.2047      5.8214
H      7.7718      2.6730      5.0439
H      7.2052      4.1409      2.1414
N      7.2467      3.9635      3.1030
C      5.4509     -0.2903      3.1370
C      9.9516     -0.5992      4.5718
C      6.8145      2.6601      3.3459
C      7.5930      0.1342      4.6999
C      8.9494      0.4619      5.0227
C      6.3136      4.8812      3.9331
C      7.0509      2.2189      4.6019
C      7.3072      1.2094      6.9166
C      8.8301      0.8307      6.6880
C      6.7431      1.0637      5.5511
33

O      6.1597      2.3390      2.3031
O      5.3236     -1.0462      2.2291
O      6.6068      4.5756      5.2811
O      7.2627     -1.4765      5.4086
O      8.8605     -1.3770      3.7544
O      9.1902     -0.1992      7.5210
O      5.4340      5.5097      3.4012
O      6.8981      0.1061      3.3033
H      6.2961     -1.6198      4.9348
H      9.6168      1.2966      7.5750
H      5.1138      0.9133      3.3907
H      5.3141     -0.4995      4.3551
H      7.1419      1.8031      7.7876
H      5.7692      4.2982      5.7512
H      8.3673     -0.5136      8.0985
H      5.5735      1.0497      5.4075
H     10.8631     -0.3539      4.1803
H      6.7460      0.3264      7.2864
H      8.8276      1.3839      4.5120
H      7.8815     -2.1266      5.7980
H      7.6881      2.7333      5.0743
H      7.1624      4.2511      2.0741
N      7.2454      3.9721      3.1079
C      5.4297     -0.2960      3.1070
C      9.9332     -0.5891      4.5837
C      6.8253      2.6722      3.3522
C      7.5738      0.1420      4.7150
C      8.9480      0.4612      4.9969
C      6.3296      4.8476      3.9432
C      7.0544      2.2329      4.6200
C      7.3174      1.2156      6.9190
C      8.8410      0.8374      6.6807
C      6.7394      1.0570      5.5721
