31

O      6.0661      2.2384      2.3107
O      5.4752     -1.0932      2.2382
O      6.6307      4.5894      5.2943
O      7.3628     -1.3578      5.5571
O      8.9703     -1.2992      3.7621
O      8.9944     -0.3457      7.6690
O      5.4367      5.6351      3.4218
O      7.1819     -0.0508      3.3494
H      7.1485     -1.3843      4.5392
H      9.4258      1.6394      6.4669
H      5.3887     -0.8551      4.4621
H      6.9174      1.9945      7.1084
H      8.2962      0.1409      8.2499
H      5.7520      0.9181      5.8709
H     10.4482     -0.4704      3.5203
H      6.8048      0.2472      7.1570
H      9.2020      1.4400      4.9965
H      7.9581     -2.0862      5.5685
H      7.9577      2.6178      4.8189
H      7.2799      3.8428      2.0119
N      7.1907      3.9526      3.1841
C      5.6755     -0.1826      3.4070
C      9.9921     -0.6567      4.4200
C      6.7474      2.6193      3.3325
C      7.5920      0.0661      4.6054
C      9.0009      0.4164      5.3184
C      6.4876      4.9313      3.8965
C      7.0505      2.2025      4.5823
C      7.2190      1.0200      6.8452
C      8.6807      0.7957      6.6937
C      6.7529      1.1025      5.3367
31

O      6.0863      2.2511      2.3136
O      5.4596     -1.0891      2.2339
O      6.6304      4.5845      5.2995
O      7.3560     -1.3689      5.5484
O      8.9522     -1.3023      3.7627
O      9.0182     -0.3256      7.6582
O      5.4496      5.6237      3.4207
O      7.1458     -0.0332      3.3401
H      7.0651     -1.3203      4.5188
H      9.5285      1.5872      6.5863
H      5.4276     -0.8210      4.4489
H      6.9310      2.0114      7.2070
H      8.3250      0.1064      8.1785
H      5.7760      0.9539      5.8817
H     10.4997     -0.5116      3.5139
H      6.7641      0.2268      7.1096
H      9.1218      1.4371      4.9817
H      7.9511     -2.1441      5.6127
H      8.0681      2.6223      4.8645
H      7.3017      3.7810      1.9520
N      7.2008      3.9520      3.1785
C      5.6506     -0.1952      3.3863
C      9.9961     -0.6470      4.4286
C      6.7542      2.6165      3.3330
C      7.5999      0.0671      4.6069
C      8.9957      0.4299      5.2936
C      6.4436      4.9411      3.8984
C      7.0393      2.1863      4.5726
C      7.2248      1.0427      6.8638
C      8.7000      0.8052      6.6924
C      6.7512      1.1116      5.3510
31

O      6.1053      2.2638      2.3166
O      5.4451     -1.0842      2.2312
O      6.6319      4.5799      5.3029
O      7.3472     -1.3795      5.5367
O      8.9342     -1.3061      3.7643
O      9.0414     -0.3047      7.6462
O      5.4608      5.6098      3.4201
O      7.1092     -0.0160      3.3315
H      6.9827     -1.2748      4.5269
H      9.6123      1.5335      6.7292
H      5.4666     -0.7711      4.4130
H      6.9438      2.0255      7.3165
H      8.3504      0.0599      8.1216
H      5.8001      0.9884      5.8699
H     10.5742     -0.5337      3.5018
H      6.6976      0.1636      7.0880
H      9.0438      1.4284      4.9542
H      7.9586     -2.2082      5.6612
H      8.1632      2.6307      4.9123
H      7.3144      3.7449      1.9259
N      7.2105      3.9504      3.1697
C      5.6246     -0.2080      3.3630
C      9.9978     -0.6380      4.4415
C      6.7602      2.6148      3.3326
C      7.6076      0.0710      4.6113
C      8.9898      0.4414      5.2637
C      6.4025      4.9503      3.8996
C      7.0304      2.1749      4.5644
C      7.2337      1.0693      6.8778
C      8.7191      0.8123      6.6921
C      6.7481      1.1151      5.3697
31

O      6.0661      2.2384      2.3107
O      5.4752     -1.0932      2.2382
O      6.6307      4.5894      5.2943
O      7.3628     -1.3578      5.5571
O      8.9703     -1.2992      3.7621
O      8.9944     -0.3457      7.6690
O      5.4367      5.6351      3.4218
O      7.1819     -0.0508      3.3494
H      7.1485     -1.3843      4.5392
H      9.4258      1.6394      6.4669
H      5.3887     -0.8551      4.4621
H      6.9174      1.9945      7.1084
H      8.2962      0.1409      8.2499
H      5.7520      0.9181      5.8709
H     10.4482     -0.4704      3.5203
H      6.8048      0.2472      7.1570
H      9.2020      1.4400      4.9965
H      7.9581     -2.0862      5.5685
H      7.9577      2.6178      4.8189
H      7.2799      3.8428      2.0119
N      7.1907      3.9526      3.1841
C      5.6755     -0.1826      3.4070
C      9.9921     -0.6567      4.4200
C      6.7474      2.6193      3.3325
C      7.5920      0.0661      4.6054
C      9.0009      0.4164      5.3184
C      6.4876      4.9313      3.8965
C      7.0505      2.2025      4.5823
C      7.2190      1.0200      6.8452
C      8.6807      0.7957      6.6937
C      6.7529      1.1025      5.3367
31

O      6.0863      2.2511      2.3136
O      5.4596     -1.0891      2.2339
O      6.6304      4.5845      5.2995
O      7.3560     -1.3689      5.5484
O      8.9522     -1.3023      3.7627
O      9.0182     -0.3256      7.6582
O      5.4496      5.6237      3.4207
O      7.1458     -0.0332      3.3401
H      7.0651     -1.3203      4.5188
H      9.5285      1.5872      6.5863
H      5.4276     -0.8210      4.4489
H      6.9310      2.0114      7.2070
H      8.3250      0.1064      8.1785
H      5.7760      0.9539      5.8817
H     10.4997     -0.5116      3.5139
H      6.7641      0.2268      7.1096
H      9.1218      1.4371      4.9817
H      7.9511     -2.1441      5.6127
H      8.0681      2.6223      4.8645
H      7.3017      3.7810      1.9520
N      7.2008      3.9520      3.1785
C      5.6506     -0.1952      3.3863
C      9.9961     -0.6470      4.4286
C      6.7542      2.6165      3.3330
C      7.5999      0.0671      4.6069
C      8.9957      0.4299      5.2936
C      6.4436      4.9411      3.8984
C      7.0393      2.1863      4.5726
C      7.2248      1.0427      6.8638
C      8.7000      0.8052      6.6924
C      6.7512      1.1116      5.3510
31

O      6.1053      2.2638      2.3166
O      5.4451     -1.0842      2.2312
O      6.6319      4.5799      5.3029
O      7.3472     -1.3795      5.5367
O      8.9342     -1.3061      3.7643
O      9.0414     -0.3047      7.6462
O      5.4608      5.6098      3.4201
O      7.1092     -0.0160      3.3315
H      6.9827     -1.2748      4.5269
H      9.6123      1.5335      6.7292
H      5.4666     -0.7711      4.4130
H      6.9438      2.0255      7.3165
H      8.3504      0.0599      8.1216
H      5.8001      0.9884      5.8699
H     10.5742     -0.5337      3.5018
H      6.6976      0.1636      7.0880
H      9.0438      1.4284      4.9542
H      7.9586     -2.2082      5.6612
H      8.1632      2.6307      4.9123
H      7.3144      3.7449      1.9259
N      7.2105      3.9504      3.1697
C      5.6246     -0.2080      3.3630
C      9.9978     -0.6380      4.4415
C      6.7602      2.6148      3.3326
C      7.6076      0.0710      4.6113
C      8.9898      0.4414      5.2637
C      6.4025      4.9503      3.8996
C      7.0304      2.1749      4.5644
C      7.2337      1.0693      6.8778
C      8.7191      0.8123      6.6921
C      6.7481      1.1151      5.3697
