   96
 8.60913085937500e+00  8.60913090000000e+00  8.60913090000000e+00
 O  1.48246795676790e+00  7.67435962345884e+00  7.00449861848805e+00    -4.15383544328184e-01 -9.10205841935118e-02  1.27913917777512e-01 
 H  1.73566045449466e+00  5.93005008447757e+00  2.52057317209592e-01    -5.39792577333498e-01  7.88984093090692e-01 -5.42289628085571e-01 
 H  3.07019289522037e+00  5.40981597108217e+00  7.43388285179567e+00    -3.23470820101915e+00  4.04862150607059e+00 -1.64536984044807e+00 
 O  9.29121577283624e+00  9.00781780568237e+00  5.02221942553046e+00    -1.63773694248629e-01  1.15903066423419e-01 -4.32804020331027e-01 
 H  2.82473989758224e+00  3.95958676073419e+00  7.61466073124856e+00     5.45302676514136e-01  9.73243427956474e-01 -2.16088457621282e+00 
 H  7.50540212882180e+00  5.31175723731916e+00  6.11050275353837e+00    -9.55850266076947e-01 -2.70765674144237e+00 -8.62683717870521e-01 
 O  2.42840750791479e+00  7.64980265918334e+00  3.51726858646802e+00     8.70467173884522e-01 -5.12340006816218e-01 -1.63075882782059e-01 
 H  1.97688902893726e+00  1.35766579048564e+00  7.02830628666664e+00     2.14934357017782e+00  9.35647242045254e-01 -2.37372996314142e+00 
 H  4.59095765883512e+00  5.77392669364609e+00  7.80989269332363e+00    -2.06539097230307e+00  8.03399748688703e-01  2.73930000995089e+00 
 O -3.08645207226909e-01  1.82410472786105e+00  3.17651883172573e+00    -1.33017420771857e+00 -1.28738641153483e-01 -6.64800032456532e-01 
 H  4.14482099613338e+00  6.24383592495592e+00  1.07330857820039e+01    -2.87534758089213e+00  1.92663471500849e-01  1.69640883411602e+00 
 H  5.20366246141729e+00  8.92944886111999e+00  5.96453544949414e+00     1.34225943056970e+00  5.41975962010369e-01 -1.20556244200393e+00 
 O  2.45709402541892e+00  4.78115729236155e+00  7.19016076424893e+00     8.47863198579708e-02 -6.28804848340721e-01 -3.16052654117561e-01 
 H  3.56733797890611e+00  3.25252900024494e+00  3.89931717590971e+00    -2.10012217250670e+00 -6.12609852478615e-01  1.99940945791063e+00 
 H  5.49489719190026e-01  7.11193383343836e+00  8.30221078592628e-01    -2.80301877887800e+00  1.74399932339426e+00 -1.65669866502382e+00 
 O  7.31549535672286e+00  1.32400046647187e+00  7.10699242967113e+00     3.10908741087177e-02 -1.53854649073646e-01 -5.58920832158219e-01 
 H -5.20068773263480e-01  4.82309073344114e+00  2.11394456654867e-01    -1.15533822817261e+00 -1.18537843368809e+00 -3.17666175927467e+00 
 H  5.08744473484859e+00  1.60041235614109e+00  6.19904352068272e+00     1.03231961081353e+00  8.51820522897936e-01  5.88163976343228e-01 
 O -5.49309561384552e-02  5.30358427430012e+00  3.93391167968031e+00     1.16775093568776e-01  8.31021066408513e-01  2.34789125234747e-01 
 H  7.90560973298186e+00  7.70574654881955e-01  6.22068754747286e+00     7.05116883251810e-01  2.88640118614406e-01  2.63483452993692e-01 
 H  4.14058764896538e+00  5.80813927492414e+00  6.47598601689957e-01     8.24447484495858e-03 -3.53116286396657e+00 -1.59594134608886e+00 
 O  4.23856392279680e+00  5.58708402582075e+00  1.54431743034971e+00     3.21721968310584e-01  2.77945053047922e-01  4.33237640920772e-01 
 H  1.41469453758732e-01  3.74397747568998e+00  5.17773643169623e+00    -1.34310689897765e+00 -6.39626509974796e-01  2.71086734790547e-01 
 H  5.62948744486301e+00  5.93930161432055e+00  4.79652366642460e+00    -2.91039495722644e+00 -2.26258692369166e+00 -1.06908276623530e+00 
 O  5.85693119642593e+00  1.76400842417520e+00  7.31510733225493e-01     2.39788436444761e-01 -4.98590026255611e-01  1.09193650371935e-01 
 H  5.02731386732459e+00  3.78532598704618e+00  4.76029112895364e+00    -5.47379112211357e-02 -3.45152673244955e+00  3.15444617656556e+00 
 H  1.47301659186421e+00  8.10820711623856e+00  3.74432813850730e+00     9.02428110497980e-01  1.58190776795963e+00  1.49398817369559e+00 
 O  2.35363840721567e+00  2.11507615046704e+00  4.12395655241017e+00    -3.13771438269606e-01 -2.53752539552005e-01 -4.39193380886612e-01 
 H  7.49047086934886e+00  8.28237011678048e+00  7.90566286297246e+00    -5.43093706255238e-01  1.51582411858018e+00 -3.28158523567880e-01 
 H  7.25955536743421e+00  6.62157144760103e+00  5.56904051384291e+00     4.26559170685729e-01 -1.06393332413865e+00  1.40810510235534e+00 
 O  3.42823161316878e+00  2.54594035972856e+00  1.59155740601648e+00    -1.73688897928429e-01  2.98377354195334e-01  4.18002877881461e-02 
 H  8.74523169003223e+00  3.22339734643640e+00  6.67018793391488e+00    -1.78413838956660e+00 -6.50741654729948e-01  2.48823631856742e+00 
 H  7.76801532386889e+00  5.82555376037481e+00  8.56404090526903e-01     6.15035427152128e-01 -2.56388504203930e+00  1.44368388910924e+00 
 O  9.28789486896072e+00  1.50818842167965e+00  7.15769555260494e-01    -6.88036812674265e-01  8.44456214079888e-01  1.30766451869530e-02 
 H  9.80281910760733e+00  8.76929310850710e+00  5.85243902198237e+00     1.62555948697901e-01 -3.96107626646321e-01  3.33969863625745e-01 
 H  5.21808722568420e+00  7.39647819149782e+00  8.03184224112257e+00    -7.06821775719785e-01  3.49480807127856e+00 -1.78046859164880e+00 
 O  8.17800939783741e+00  8.12347770799552e+00  2.74212926415011e+00     1.89664161220983e-01  8.58979191438580e-02  7.12868816333543e-01 
 H  2.19754695764305e+00  4.77528413527466e+00  2.64355515340759e+00     3.15916297107588e+00 -1.30140251386273e+00  1.75863646612763e+00 
 H  8.60683806907597e+00 -4.19416549531902e-01  4.71913670684140e+00     1.69043528168069e+00  2.04079552293420e+00  2.29414566901373e+00 
 O  5.78270804460419e+00  2.86596446346801e+00  5.80407925982956e+00     5.38193509835857e-01 -3.51656950480226e-01 -9.20266534907735e-01 
 H  5.36156621332631e+00  4.20655930339680e+00  6.90490296004094e+00    -3.37279506214252e+00 -1.11269571945567e+00 -1.01166173305253e+00 
 H  6.50996365327551e+00  1.22602779114472e+00  8.25820348144509e+00    -1.95718744607212e+00  1.00630942981128e+00  6.22006299143453e-01 
 O  1.47611669544563e+00  2.09468799332529e+00  6.90700659735748e+00     3.67110686187151e-01  6.89550755589377e-01 -3.67412018024196e-01 
 H  1.70148008596181e+00  2.09162135562787e+00  5.89831358826925e+00    -6.83294515995639e-01 -1.47624780589917e-01  2.26599600680905e+00 
 H  4.16600327134308e+00  1.26687764915390e+00  3.53592596971645e+00    -1.55196984161537e+00  1.68840879665489e+00  3.62652075154528e-01 
 O  7.27065206586155e+00  7.81942978802476e+00  8.69997569848223e+00     5.12263487596099e-02 -5.06742724541856e-01 -1.37621569417410e-01 
 H  5.08945696957001e+00  4.99659122932996e+00  1.84089718225180e+00     3.20994824662082e+00  4.70819967425230e+00  1.01799226130686e+00 
 H  8.71269113052656e+00  1.51966806383493e+00 -1.54580195487915e-01     1.07615947272303e+00 -3.90489364082512e-01  2.57836677003888e+00 
 O  1.03969737403684e+00  6.14378543290770e+00  9.54494117765466e-01     3.06976302306386e-01 -4.07584183045794e-02  2.25265068816053e-03 
 H  6.79721331990847e+00  2.71407032680787e+00  6.22063881140970e+00    -1.21808303463642e+00  2.52372902147398e+00 -8.87567492035987e-02 
 H  5.98037351954469e+00  2.68396267396480e+00  7.95283759387891e-01    -1.27058135485037e+00  2.53928079791873e+00  2.05159213400904e+00 
 O  6.69404007691095e+00 -2.56668131689855e-01  5.28231665675856e+00     1.49427057493806e-01 -1.67779030238073e-01 -1.06191465880643e+00 
 H  4.74182062723866e+00  2.14024822849116e-01  1.46825491412276e+00     7.59603113602772e-02  2.07243211955754e+00 -6.22177978273157e-01 
 H  3.12008340995009e+00  3.46985922110698e+00  1.55110289461960e+00    -7.78241858446161e-01 -2.78717902567265e+00 -7.80886425285859e-02 
 O  3.11651214641947e+00  6.12390411440702e+00  5.11959469510993e+00    -3.83428205615731e-01  3.20335420142747e-01  4.72344919735546e-02 
 H  6.37672435240492e-01  3.89935187557630e+00  2.57560878907661e+00    -1.64666386325395e+00 -1.05414478252452e+00  1.31096758198359e+00 
 H  2.68143616118439e+00  1.33681515667337e+00  4.75689297784718e+00    -2.47835827088687e+00  4.77658764087246e-01  1.26595852521522e+00 
 O  4.11093318396786e+00  3.98586481853091e+00  4.20911935138131e+00     1.32138447196849e-02  2.34283918125698e-01 -2.31844149530697e-01 
 H  6.15355958590988e+00  4.18513916684758e+00  8.21309359313594e+00    -2.97559360853317e-01  3.77891638583538e+00 -5.69413377978952e-01 
 H  5.65795731813555e+00  2.41691274315204e+00  2.96002430191738e+00    -2.28735372684524e+00  2.35928393650733e+00  3.42095805373887e+00 
 O  4.71889283567499e+00  7.99263340044682e+00  1.78201855133888e+00     5.08739918037785e-01 -2.54316805215590e-01  5.79837826625311e-01 
 H  9.49919415132156e-01  6.94056182039329e+00  6.57719677158693e+00     1.35440325533656e+00  8.28787329119006e-01  5.34266813477301e+00 
 H  2.36575004441262e+00  5.65541357264048e+00  5.58148739808236e+00    -2.85416142563461e-01 -1.96469368940001e-01  1.65906729833763e+00 
 O  4.38591226758492e+00  6.92258551435458e+00  7.87773340090821e+00     5.11928915413319e-01 -1.08329113739009e+00 -3.53996744830485e-01 
 H  2.59323005418974e+00 -7.02119462364425e-02  2.61817895583096e+00     6.14109145488321e+00 -1.89593927812476e+00  3.01835738303713e+00 
 H  3.69678586898824e+00  8.00078000507811e+00  1.87316875917669e+00    -2.96189173067457e+00 -3.04403824453887e+00  8.87144217395126e-01 
 O  4.46429785407052e+00  9.44859521904215e+00  6.33716164728952e+00     4.52946903462916e-01 -2.00060481102214e-01 -1.51267316671035e-02 
 H  4.83094927711864e-01  2.42418323086445e+00  5.57131683491015e-01     1.22692336145398e+00  9.38332966298735e-01 -8.47705974893792e-01 
 H  6.47157980143562e+00  7.26277786664163e+00  3.43370024034014e-01     1.80500746700663e+00  3.09688696377162e+00  3.46165758457764e+00 
 O  7.38036249383231e+00  4.93862656576112e+00  8.94330063903145e-01     2.05426919218319e-01  5.41888707387519e-01  3.44894898974734e-01 
 H  1.30706153984231e+00  2.23520751988123e+00  4.45042602672219e+00     2.98200586996433e-01 -2.71363062266373e+00 -4.29295136646990e+00 
 H  8.23921317245009e+00  9.38755318132334e+00  2.86876923080913e+00    -1.23080631483026e+00  7.31242338691290e-01  1.36831736689937e+00 
 O  7.58296699174144e+00  6.23890160072869e+00  6.42594059311967e+00     3.27702504834806e-01  3.13090714374825e-01  1.40198641062098e+00 
 H  4.60165157678732e+00  9.75895193369566e+00  7.22485365018431e+00    -7.12497346246000e-01  1.23776070872920e+00 -3.66434066102942e-01 
 H  3.73148559860143e-01  6.13808937575131e+00  3.51107367342009e+00    -3.52492147644963e+00  2.29301837405409e+00 -2.97893390958393e+00 
 O  5.25521382325457e+00  4.18160457117926e+00  7.82932680735467e+00     1.56672252756560e-02  4.46889120336751e-01 -6.68453766875173e-01 
 H  7.25563036423294e+00  4.08428281302133e-01  4.76827398881055e+00     5.67247374704852e+00 -1.78193227407757e+00 -1.14515319657536e+00 
 H  6.68071885982111e+00  3.07080739444986e+00  3.69469707232411e+00     1.44850086225967e+00 -2.88110423279954e+00 -8.81886506628801e-01 
 O  4.95489544667739e+00  7.14863775068874e-01  3.75327993442125e+00    -4.80793044101370e-01 -2.79223074218156e-01 -2.17708107409608e-01 
 H -7.47891814968826e-01  5.11486881474376e+00  3.24502349567555e+00    -6.91262757812323e-02  1.42030855455381e+00  7.40185828523441e-01 
 H -2.51780388421975e-01  2.27938039434277e+00  2.37734654687259e+00    -6.23691951756003e-01  2.90309191124195e+00  4.92894772652143e-01 
 O  3.14927071204083e+00  4.86535732373945e-01  2.67402967895092e-02     9.93994856134207e-01 -9.92364185810282e-02  2.26854542962412e-01 
 H  2.83004332093871e+00  2.11543932047414e+00  2.04170821879289e+00     1.17042994509933e+00 -9.16200790055557e-02 -1.77787917426504e+00 
 H  4.92466505616501e+00  1.60707218170494e+00  8.52122132259556e-01    -3.69160021644866e+00  5.52711354935201e-01 -3.80008357699250e+00 
 O  5.89117488564075e+00  6.05633608501302e+00  3.83266621376198e+00     1.23210211475793e-01 -8.46539929677493e-02  2.99921484680135e-01 
 H  7.47069775436731e+00 -6.04066111009514e-01  2.04782747718797e+00    -1.38917846578790e+00 -1.60266608773790e+00  2.78425461884839e+00 
 H  2.39750687782982e+00  7.61923969666711e+00  6.91964637142359e+00    -1.88526503731087e+00 -2.54291379141454e+00 -1.83509540829421e+00 
 O  1.59154776959686e+00  4.11211626324321e+00  2.15286967366945e+00    -2.88854571765500e-01 -8.67557527061694e-01  6.76929543268879e-01 
 H  2.19970776721627e+00  5.64566522473443e-01  8.90239411729503e+00     1.15729176147114e+00 -1.00658154289235e+00  4.27072679000554e+00 
 H  5.68538511730626e+00 -9.16163571195296e-02  4.28471352785436e+00    -3.91157364968671e-01 -5.22402192986311e-01 -1.19083093584563e+00 
 O  8.11086830292164e+00  3.61892113633461e+00  5.90700719394201e+00    -5.65139334790660e-03  3.02220617226720e-01  3.80774537886786e-02 
 H  3.15529213209212e+00 -2.67050695507444e-01 -5.05834143303633e-01    -5.06578212951467e+00 -1.46078012181119e+00 -2.22554852500815e+00 
 H  2.71111792972419e+00  6.87867279358519e+00  4.26122415746897e+00     3.50674943942752e+00  1.88804271617290e-02  3.79322806262357e+00 
 O  6.26991663606004e+00  3.22756594605164e+00  2.81157497567371e+00    -6.52552430687622e-01  5.10318333804596e-01 -2.20725839302498e-01 
 H  3.62445956239157e+00  4.92430811480317e+00  4.41066640252687e+00    -8.57369085357606e-01 -4.84702794604080e-01  4.11038310105895e-01 
 H  6.39091849124592e+00  6.89295190132309e+00  3.63345877659363e+00    -1.77044023611402e+00 -2.70001163530287e+00  5.29432581998945e-01 
