   96
 8.60913085937500e+00  8.60913090000000e+00  8.60913090000000e+00
 O  1.48246795676796e+00  7.67435962345897e+00  7.00449861848814e+00    -4.15383544324284e-01 -9.10205841926848e-02  1.27913917778030e-01 
 H  1.73566045449442e+00  5.93005008447697e+00  2.52057317209531e-01    -5.39792577332337e-01  7.88984093084339e-01 -5.42289628082172e-01 
 H  3.07019289522046e+00  5.40981597108223e+00  7.43388285179539e+00    -3.23470820100808e+00  4.04862150606611e+00 -1.64536984044242e+00 
 O  9.29121577283697e+00  9.00781780568236e+00  5.02221942553055e+00    -1.63773694244700e-01  1.15903066422261e-01 -4.32804020328251e-01 
 H  2.82473989758272e+00  3.95958676073392e+00  7.61466073124673e+00     5.45302676509790e-01  9.73243427950345e-01 -2.16088457622369e+00 
 H  7.50540212882028e+00  5.31175723731876e+00  6.11050275353945e+00    -9.55850266086272e-01 -2.70765674144397e+00 -8.62683717859525e-01 
 O  2.42840750791479e+00  7.64980265918262e+00  3.51726858646746e+00     8.70467173885503e-01 -5.12340006825860e-01 -1.63075882780726e-01 
 H  1.97688902895305e+00  1.35766579049402e+00  7.02830628664711e+00     2.14934357032198e+00  9.35647242167682e-01 -2.37372996338783e+00 
 H  4.59095765883260e+00  5.77392669364788e+00  7.80989269332615e+00    -2.06539097231742e+00  8.03399748724737e-01  2.73930000995239e+00 
 O -3.08645207229624e-01  1.82410472786070e+00  3.17651883172837e+00    -1.33017420771422e+00 -1.28738641151087e-01 -6.64800032452295e-01 
 H  4.14482099613465e+00  6.24383592495623e+00  1.07330857820024e+01    -2.87534758086843e+00  1.92663471539575e-01  1.69640883413053e+00 
 H  5.20366246142245e+00  8.92944886112253e+00  5.96453544949627e+00     1.34225943060629e+00  5.41975962060569e-01 -1.20556244200089e+00 
 O  2.45709402541891e+00  4.78115729236186e+00  7.19016076424900e+00     8.47863198566504e-02 -6.28804848339533e-01 -3.16052654117941e-01 
 H  3.56733797890518e+00  3.25252900024753e+00  3.89931717590870e+00    -2.10012217255072e+00 -6.12609852477778e-01  1.99940945789352e+00 
 H  5.49489719190605e-01  7.11193383343832e+00  8.30221078593365e-01    -2.80301877887806e+00  1.74399932339748e+00 -1.65669866502069e+00 
 O  7.31549535672349e+00  1.32400046647261e+00  7.10699242967086e+00     3.10908741031427e-02 -1.53854649067448e-01 -5.58920832151374e-01 
 H -5.20068773264204e-01  4.82309073344171e+00  2.11394456653923e-01    -1.15533822817771e+00 -1.18537843369194e+00 -3.17666175927447e+00 
 H  5.08744473484556e+00  1.60041235614349e+00  6.19904352068513e+00     1.03231961085811e+00  8.51820522921236e-01  5.88163976257423e-01 
 O -5.49309561380200e-02  5.30358427429942e+00  3.93391167967987e+00     1.16775093570375e-01  8.31021066404370e-01  2.34789125231983e-01 
 H  7.90560973297019e+00  7.70574654871355e-01  6.22068754747170e+00     7.05116883144462e-01  2.88640118568072e-01  2.63483452957389e-01 
 H  4.14058764896616e+00  5.80813927492515e+00  6.47598601691247e-01     8.24447486255777e-03 -3.53116286400090e+00 -1.59594134594088e+00 
 O  4.23856392279675e+00  5.58708402582055e+00  1.54431743034892e+00     3.21721968309105e-01  2.77945053045948e-01  4.33237640904116e-01 
 H  1.41469453760610e-01  3.74397747569521e+00  5.17773643169749e+00    -1.34310689893425e+00 -6.39626509972946e-01  2.71086734810747e-01 
 H  5.62948744485808e+00  5.93930161432490e+00  4.79652366642385e+00    -2.91039495723148e+00 -2.26258692369243e+00 -1.06908276624432e+00 
 O  5.85693119642576e+00  1.76400842417524e+00  7.31510733225691e-01     2.39788436445127e-01 -4.98590026254936e-01  1.09193650371447e-01 
 H  5.02731386732342e+00  3.78532598704298e+00  4.76029112895603e+00    -5.47379112305445e-02 -3.45152673245528e+00  3.15444617659183e+00 
 H  1.47301659185805e+00  8.10820711622806e+00  3.74432813850091e+00     9.02428110451946e-01  1.58190776789614e+00  1.49398817363810e+00 
 O  2.35363840722261e+00  2.11507615046967e+00  4.12395655241755e+00    -3.13771438271869e-01 -2.53752539557113e-01 -4.39193380856134e-01 
 H  7.49047086934800e+00  8.28237011677920e+00  7.90566286297174e+00    -5.43093706247197e-01  1.51582411856744e+00 -3.28158523572231e-01 
 H  7.25955536743213e+00  6.62157144760016e+00  5.56904051384302e+00     4.26559170675301e-01 -1.06393332412993e+00  1.40810510235832e+00 
 O  3.42823161316907e+00  2.54594035972904e+00  1.59155740601631e+00    -1.73688897923089e-01  2.98377354200169e-01  4.18002877867281e-02 
 H  8.74523169003081e+00  3.22339734643898e+00  6.67018793391686e+00    -1.78413838957468e+00 -6.50741654694695e-01  2.48823631860585e+00 
 H  7.76801532386817e+00  5.82555376037503e+00  8.56404090526659e-01     6.15035427152972e-01 -2.56388504203303e+00  1.44368388911391e+00 
 O  9.28789486896118e+00  1.50818842168069e+00  7.15769555261030e-01    -6.88036812673911e-01  8.44456214081627e-01  1.30766451880245e-02 
 H  9.80281910760782e+00  8.76929310850687e+00  5.85243902198340e+00     1.62555948697358e-01 -3.96107626641731e-01  3.33969863638476e-01 
 H  5.21808722568715e+00  7.39647819149479e+00  8.03184224111868e+00    -7.06821775698634e-01  3.49480807126148e+00 -1.78046859166515e+00 
 O  8.17800939783793e+00  8.12347770799615e+00  2.74212926415009e+00     1.89664161222009e-01  8.58979191451055e-02  7.12868816333598e-01 
 H  2.19754695764585e+00  4.77528413527428e+00  2.64355515340456e+00     3.15916297106746e+00 -1.30140251386719e+00  1.75863646611580e+00 
 H  8.60683806907821e+00 -4.19416549534261e-01  4.71913670684088e+00     1.69043528165845e+00  2.04079552292396e+00  2.29414566901914e+00 
 O  5.78270804460463e+00  2.86596446346803e+00  5.80407925982870e+00     5.38193509838545e-01 -3.51656950480829e-01 -9.20266534902117e-01 
 H  5.36156621332536e+00  4.20655930339708e+00  6.90490296004091e+00    -3.37279506215865e+00 -1.11269571944877e+00 -1.01166173305801e+00 
 H  6.50996365327371e+00  1.22602779113833e+00  8.25820348143591e+00    -1.95718744596818e+00  1.00630942983362e+00  6.22006299019246e-01 
 O  1.47611669544596e+00  2.09468799332643e+00  6.90700659735495e+00     3.67110686174269e-01  6.89550755599829e-01 -3.67412018021637e-01 
 H  1.70148008591529e+00  2.09162135564156e+00  5.89831358824939e+00    -6.83294515958438e-01 -1.47624780591420e-01  2.26599600659771e+00 
 H  4.16600327137197e+00  1.26687764921233e+00  3.53592596976045e+00    -1.55196984139677e+00  1.68840879693528e+00  3.62652075529274e-01 
 O  7.27065206586170e+00  7.81942978802465e+00  8.69997569848224e+00     5.12263487592553e-02 -5.06742724543050e-01 -1.37621569415735e-01 
 H  5.08945696957126e+00  4.99659122933142e+00  1.84089718225174e+00     3.20994824661065e+00  4.70819967425669e+00  1.01799226130344e+00 
 H  8.71269113053215e+00  1.51966806383156e+00 -1.54580195489663e-01     1.07615947273778e+00 -3.90489364104162e-01  2.57836677003260e+00 
 O  1.03969737403685e+00  6.14378543290766e+00  9.54494117765520e-01     3.06976302306375e-01 -4.07584183047548e-02  2.25265068831548e-03 
 H  6.79721331990433e+00  2.71407032680447e+00  6.22063881142369e+00    -1.21808303463272e+00  2.52372902142173e+00 -8.87567492472451e-02 
 H  5.98037351954455e+00  2.68396267396452e+00  7.95283759389692e-01    -1.27058135483409e+00  2.53928079791269e+00  2.05159213400799e+00 
 O  6.69404007691245e+00 -2.56668131690104e-01  5.28231665676091e+00     1.49427057514034e-01 -1.67779030241796e-01 -1.06191465877875e+00 
 H  4.74182062722183e+00  2.14024822855715e-01  1.46825491413949e+00     7.59603111775472e-02  2.07243211966487e+00 -6.22177978189148e-01 
 H  3.12008340995485e+00  3.46985922110844e+00  1.55110289461854e+00    -7.78241858435148e-01 -2.78717902566905e+00 -7.80886425427118e-02 
 O  3.11651214641834e+00  6.12390411440854e+00  5.11959469510935e+00    -3.83428205623474e-01  3.20335420157262e-01  4.72344919691697e-02 
 H  6.37672435238736e-01  3.89935187558404e+00  2.57560878907696e+00    -1.64666386325870e+00 -1.05414478247801e+00  1.31096758199930e+00 
 H  2.68143616115407e+00  1.33681515664106e+00  4.75689297782464e+00    -2.47835827083233e+00  4.77658763877975e-01  1.26595852501540e+00 
 O  4.11093318396876e+00  3.98586481853153e+00  4.20911935138055e+00     1.32138447279687e-02  2.34283918125780e-01 -2.31844149533469e-01 
 H  6.15355958590990e+00  4.18513916684193e+00  8.21309359313474e+00    -2.97559360832381e-01  3.77891638580915e+00 -5.69413377975402e-01 
 H  5.65795731813450e+00  2.41691274315398e+00  2.96002430191965e+00    -2.28735372679604e+00  2.35928393652363e+00  3.42095805371532e+00 
 O  4.71889283567580e+00  7.99263340044338e+00  1.78201855133674e+00     5.08739918050315e-01 -2.54316805236717e-01  5.79837826610824e-01 
 H  9.49919415133354e-01  6.94056182039203e+00  6.57719677158751e+00     1.35440325533982e+00  8.28787329113785e-01  5.34266813477801e+00 
 H  2.36575004441347e+00  5.65541357263818e+00  5.58148739808178e+00    -2.85416142566736e-01 -1.96469368947753e-01  1.65906729831752e+00 
 O  4.38591226758569e+00  6.92258551435354e+00  7.87773340090889e+00     5.11928915417305e-01 -1.08329113739705e+00 -3.53996744824380e-01 
 H  2.59323005419330e+00 -7.02119462387422e-02  2.61817895584083e+00     6.14109145488788e+00 -1.89593927815642e+00  3.01835738314463e+00 
 H  3.69678586899253e+00  8.00078000508340e+00  1.87316875922500e+00    -2.96189173064082e+00 -3.04403824445347e+00  8.87144217719003e-01 
 O  4.46429785407051e+00  9.44859521904169e+00  6.33716164728901e+00     4.52946903459783e-01 -2.00060481108114e-01 -1.51267316659084e-02 
 H  4.83094927708822e-01  2.42418323086407e+00  5.57131683488845e-01     1.22692336143299e+00  9.38332966319884e-01 -8.47705974855588e-01 
 H  6.47157980143510e+00  7.26277786664233e+00  3.43370024037669e-01     1.80500746698918e+00  3.09688696379990e+00  3.46165758458348e+00 
 O  7.38036249383230e+00  4.93862656576115e+00  8.94330063903149e-01     2.05426919218573e-01  5.41888707386972e-01  3.44894898974279e-01 
 H  1.30706153978837e+00  2.23520751980558e+00  4.45042602668510e+00     2.98200586821595e-01 -2.71363062279440e+00 -4.29295136636986e+00 
 H  8.23921317244853e+00  9.38755318131917e+00  2.86876923080867e+00    -1.23080631482049e+00  7.31242338649115e-01  1.36831736689035e+00 
 O  7.58296699174172e+00  6.23890160072890e+00  6.42594059311939e+00     3.27702504835601e-01  3.13090714375335e-01  1.40198641061748e+00 
 H  4.60165157678045e+00  9.75895193369200e+00  7.22485365018609e+00    -7.12497346290256e-01  1.23776070868057e+00 -3.66434066089222e-01 
 H  3.73148559858473e-01  6.13808937575303e+00  3.51107367342270e+00    -3.52492147644319e+00  2.29301837404474e+00 -2.97893390957081e+00 
 O  5.25521382325461e+00  4.18160457117923e+00  7.82932680735487e+00     1.56672252750783e-02  4.46889120335269e-01 -6.68453766874532e-01 
 H  7.25563036422666e+00  4.08428281296508e-01  4.76827398879766e+00     5.67247374703636e+00 -1.78193227409016e+00 -1.14515319664803e+00 
 H  6.68071885982529e+00  3.07080739445036e+00  3.69469707232252e+00     1.44850086224314e+00 -2.88110423280795e+00 -8.81886506639606e-01 
 O  4.95489544667595e+00  7.14863775066685e-01  3.75327993441588e+00    -4.80793044116505e-01 -2.79223074234763e-01 -2.17708107442312e-01 
 H -7.47891814972371e-01  5.11486881474903e+00  3.24502349567730e+00    -6.91262757982116e-02  1.42030855456949e+00  7.40185828536244e-01 
 H -2.51780388429598e-01  2.27938039434473e+00  2.37734654687538e+00    -6.23691951786764e-01  2.90309191124277e+00  4.92894772690430e-01 
 O  3.14927071204127e+00  4.86535732377335e-01  2.67402967907567e-02     9.93994856125422e-01 -9.92364185528459e-02  2.26854542972318e-01 
 H  2.83004332093426e+00  2.11543932047478e+00  2.04170821878518e+00     1.17042994504261e+00 -9.16200790811875e-02 -1.77787917425426e+00 
 H  4.92466505616381e+00  1.60707218170469e+00  8.52122132256221e-01    -3.69160021645946e+00  5.52711354916873e-01 -3.80008357702350e+00 
 O  5.89117488564098e+00  6.05633608501320e+00  3.83266621376204e+00     1.23210211476110e-01 -8.46539929645196e-02  2.99921484680437e-01 
 H  7.47069775436710e+00 -6.04066111009855e-01  2.04782747718868e+00    -1.38917846577815e+00 -1.60266608772268e+00  2.78425461883734e+00 
 H  2.39750687783043e+00  7.61923969666343e+00  6.91964637142703e+00    -1.88526503732996e+00 -2.54291379143423e+00 -1.83509540829598e+00 
 O  1.59154776959671e+00  4.11211626324325e+00  2.15286967366982e+00    -2.88854571764914e-01 -8.67557527060142e-01  6.76929543269784e-01 
 H  2.19970776721321e+00  5.64566522452909e-01  8.90239411728207e+00     1.15729176133523e+00 -1.00658154285502e+00  4.27072679003690e+00 
 H  5.68538511727749e+00 -9.16163570995443e-02  4.28471352784068e+00    -3.91157365281311e-01 -5.22402192794837e-01 -1.19083093611433e+00 
 O  8.11086830292192e+00  3.61892113633455e+00  5.90700719394189e+00    -5.65139334894414e-03  3.02220617229168e-01  3.80774537859712e-02 
 H  3.15529213208384e+00 -2.67050695520193e-01 -5.05834143306267e-01    -5.06578212933949e+00 -1.46078012215725e+00 -2.22554852526637e+00 
 H  2.71111792973318e+00  6.87867279358989e+00  4.26122415748311e+00     3.50674943945114e+00  1.88804272516547e-02  3.79322806262775e+00 
 O  6.26991663606050e+00  3.22756594605162e+00  2.81157497567384e+00    -6.52552430685800e-01  5.10318333805924e-01 -2.20725839301487e-01 
 H  3.62445956239245e+00  4.92430811479971e+00  4.41066640252226e+00    -8.57369085336015e-01 -4.84702794640037e-01  4.11038310061471e-01 
 H  6.39091849124411e+00  6.89295190132412e+00  3.63345877659287e+00    -1.77044023611097e+00 -2.70001163529785e+00  5.29432582016953e-01 
