   96
 8.60913090000000e+00  8.60913090000000e+00  8.60913090000000e+00
 O  2.53408869911160e+00  8.22797920772289e+00  6.99403599244962e+00    -1.22405639042226e-01 -1.95764179498942e-03 -7.70182674432745e-01 
 H  8.57842057508943e-01  7.16460575171661e+00  1.92086412720424e-01    -2.28021629604219e+00 -3.69560202037437e+00 -1.62349379298468e+00 
 H  2.79895694176707e+00  5.14418626971412e+00  6.58537028063115e+00    -6.17167785041561e+00 -4.42156239066173e+00 -3.20290521740103e+00 
 O  9.97835566907011e+00  9.18237064063140e+00  5.37991553917614e+00     5.95819787513108e-01  3.47501528611788e-01  3.19381200444625e-01 
 H  1.62552359474995e+00  4.37962186402943e+00  7.39782791662567e+00    -4.29612856010802e+00  2.00030438886487e-01  2.54690649800121e+00 
 H  8.27972998908795e+00  2.76260834875178e+00  4.50482787124759e+00    -1.19071903512434e+00  8.28188641512153e-01  2.79088890420399e-01 
 O  2.20321066914846e+00  7.86661274838375e+00  3.73112955036059e+00     2.14417649582425e-01 -3.61991255861282e-01  6.05304319173813e-01 
 H  8.46987707580901e-01  1.93210908934307e+00  7.50649218521404e+00     6.45510715189379e-01  7.47810468222099e-02  1.48546636855119e-02 
 H  5.41219076135094e+00  6.68411146171955e+00  6.92611128433645e+00    -1.85631869036912e+00  6.09156137086494e-01  6.76360953188725e-01 
 O -6.54687149856856e-02  1.78584149757317e+00  3.21901304577090e+00    -8.64419713089536e-01 -4.36844373395314e-01  4.15800163526939e-01 
 H  5.14901110476159e+00  4.75123124405180e+00  8.21013776505291e+00     6.77785373837336e-01  2.88970077722658e-01 -1.89252408892966e-01 
 H  4.88306955358533e+00  9.66444148591808e+00  7.42144267533795e+00     7.45162443597068e-01 -5.53730621822637e-02  2.43805409477810e+00 
 O  2.14254716402106e+00  5.11273769074968e+00  7.28892650842905e+00    -2.92341014097212e-01 -6.95448145033651e-02 -2.30817817826575e-01 
 H  3.76752063555697e+00  4.53772062054017e+00  2.28194055356116e+00     5.99020285361678e-01 -2.88878809841817e+00 -5.10167183619952e-01 
 H -5.40621478879423e-01  6.37892343266603e+00  5.61630558044841e-01    -2.94271280361991e+00 -1.96703722097077e-01  1.10604911773140e+00 
 O  7.87191647310414e+00  2.25342423511075e+00  7.34328891939303e+00    -8.35824006041125e-01 -1.14831218224324e-01 -7.34614033209330e-01 
 H  6.75128715290065e-01  3.99999318341885e+00  6.74047056856626e-01     1.14194646882812e+00 -8.67471119908520e-01 -1.01177342362661e+00 
 H  4.65996814345794e+00  4.26566709254407e+00  5.44319547264781e+00     9.44012046299751e-02  1.40048480769213e+00  3.86779395598624e-01 
 O  1.22196895788618e-01  5.22106740396279e+00  3.35583850482235e+00     7.57794846406836e-01  2.60546449286994e-01 -1.56971632404547e-01 
 H  6.36385477545755e+00 -8.72690363689403e-01  4.93416127944270e+00     8.11951288087940e-01 -3.42397868986668e-01  7.26664467850971e-02 
 H  3.11024699336385e+00  5.70476744906040e+00 -2.26168650204422e-01    -2.97838804433321e+00  3.31733541087182e+00  8.93111262862838e-01 
 O  3.42672381286329e+00  5.74989637326068e+00  6.37955552148956e-01    -3.57252819659589e-01  3.51883638023805e-01  5.30180238814542e-01 
 H -5.17790419087319e-01  4.21963897928572e+00  4.32652566127478e+00     2.81393117477577e+00  1.40163968188542e+00 -3.33362267803032e+00 
 H  7.08129234587581e+00  5.58233555297256e+00  6.04783097974252e+00    -7.34515553228155e-02 -2.42239961611724e+00  2.97073474929941e+00 
 O  6.04206705420140e+00  1.51957346830400e+00  5.35168178437226e-01     2.04588308359571e-03  3.40173698778047e-01  5.35570391284704e-01 
 H  4.93206177020382e+00  5.00086912369583e+00  2.94423421048438e+00    -6.48273959803206e+00  1.52367684624600e+00  2.37790074392246e-01 
 H  2.94811068048846e+00  7.90679906248655e+00  4.46002333143706e+00    -3.75423200670532e-01 -7.64236269722123e-01 -6.24364580017659e-01 
 O  2.74196513392687e+00  2.38044697415133e+00  3.65681100370474e+00     2.99816662517275e-01  6.19939217185184e-01 -2.75590640077571e-01 
 H  7.57489457429773e+00  8.17673281994787e+00  9.71930990944022e+00     3.73895836563245e-01  4.99683200567688e-03 -2.43569233961080e+00 
 H  8.68047113635108e+00  6.09610126622151e+00  6.65901119356429e+00    -1.36258310810754e-01  4.15339196559727e+00 -2.30092742853805e+00 
 O  3.81661301214126e+00  2.80936328344589e+00  1.09076348474273e+00     2.33828110622527e-01  2.91294120446717e-01 -6.58131435991936e-01 
 H  7.17861354858359e+00  3.59527198149553e+00  5.78046737647898e+00    -2.86697939737445e+00 -1.07666734739063e+00  7.21242775509887e-01 
 H  6.87745537746994e+00  3.85880807581580e+00  1.65615125072868e+00     5.17740695428559e-01  6.90194087672437e-01  1.56088942504919e+00 
 O  8.70831845897636e+00  1.07705893429418e+00  1.02035985311520e+00     3.04306065441633e-01  4.28565112304062e-01 -2.12524076497172e-01 
 H  1.05437244677784e+01  8.59575343701741e+00  6.21338215196572e+00     7.15379801677663e-01  1.48464737218360e+00 -1.73740829412642e+00 
 H  6.13742398152642e+00  7.67515159462876e+00  8.47975669776979e+00     3.50523518611144e-01 -3.33655021701903e-02  3.34680763832587e+00 
 O  7.68195320153754e+00  7.52017629011946e+00  3.39337024292759e+00    -1.86171198151694e-01 -5.77754176756048e-01  1.01920200636189e+00 
 H  2.34585108936980e+00  4.00994475287270e+00  1.24502688098021e+00     6.46682271128727e-01 -2.66392357171519e-01 -7.99967747909749e-01 
 H  1.02951630704535e+01  1.10979021704853e-01  4.43851514470021e+00     7.25601008343577e+00 -2.25275990660587e+00 -1.61448485380673e+00 
 O  4.82131246879463e+00  3.52497413648423e+00  6.02582070984475e+00     4.05694902209805e-01  4.14828576599083e-01 -7.74119777237992e-01 
 H  5.43956940707091e+00  3.53627301569799e+00  9.30417478840910e+00     4.63421992115751e+00  2.06142900977021e+00  2.15656910716528e+00 
 H  7.41790938136995e+00  1.93188538468150e+00  6.45115077179307e+00    -5.98981400072604e-01 -5.74386516286304e-02  4.46592746948562e-01 
 O  1.76004811059017e+00  2.28832962273132e+00  7.71935756026972e+00     7.05686947133280e-01  5.52265303704258e-01  7.22382752979651e-01 
 H  3.61703698313154e+00  1.87029072339663e+00  3.58287633227554e+00    -1.82068851566764e+00 -6.03215128981286e-01 -1.85555967585757e+00 
 H  5.98784528441740e+00  9.42746296977539e-01  4.50075347016795e+00     2.35905046656102e+00  1.56824773757258e-01 -2.99556066152471e+00 
 O  6.93702682521958e+00  7.61636304112836e+00  9.09856025821523e+00    -2.03023330282144e-01 -9.68206135380263e-01  1.23118200758060e-01 
 H  3.11167656537857e+00  6.74231888746045e+00  7.76746436396817e-01    -1.17698462990652e+00 -3.07514857143358e+00 -2.56334572364678e+00 
 H  8.29421071618001e+00  5.47755101709839e-01  4.13935340210826e-01    -6.48110891836840e-01 -5.01110067304292e+00  6.13573400868393e-01 
 O  4.09341595834336e-01  6.36607403776864e+00  4.62154963194808e-01    -1.99162517801978e-01  3.26768291175667e-02  1.73898975035456e-01 
 H  3.83229381069962e+00  3.32243443798470e+00  5.73751008887742e+00     2.89786178203014e-02 -1.64209892836475e+00 -3.14162962521603e+00 
 H  7.23996151777291e+00  1.97586435346618e+00 -5.31716747063294e-01    -1.48834122762451e+00  6.49322147315689e-01  9.23954242727770e-01 
 O  6.55275608242456e+00 -2.42899034817769e-01  5.59073326475916e+00     1.33068839026865e-01 -7.32491103379125e-01  3.90431772595388e-01 
 H  4.95162822623677e+00 -1.31739357098383e+00  2.53161110844262e+00    -2.16092379898159e+00 -1.39319044305717e-01 -2.02393345866403e-01 
 H  2.46760157879630e+00  1.02896307622775e+00  1.36658013934546e+00     8.07991880991079e-01 -1.73786286520140e+00  5.76282412805408e-01 
 O  3.21228538405532e+00  5.18168366662902e+00  4.96963835690026e+00    -5.71425858025271e-03  5.82253798774550e-01 -1.50368812722235e-01 
 H  1.18986487242112e+00  4.70240634786185e+00  1.60618715261555e+00     1.17724016741570e+00 -1.06162904825634e+00 -3.60719596324429e-01 
 H  1.84721782176658e+00  2.63159553293425e+00  3.66721427382143e+00     4.90779264329012e-01  3.21974198528128e-01  1.12314390198628e+00 
 O  4.16190143846848e+00  4.35647462560696e+00  3.12512866546318e+00     2.27607665753219e-01 -2.01069955824892e-01 -6.86749505166500e-01 
 H  6.79153471277832e+00  1.66708072237239e+00  1.00323637386912e+01     2.11494486273934e-01 -7.74182718547474e-01  5.24890820514712e-01 
 H  7.10090626301097e+00  2.68466280565770e+00  2.46053791566118e+00    -1.00759194612913e+00 -2.96331791965967e+00  1.67393902236868e+00 
 O  4.18145153980818e+00  7.75162288435230e+00  2.30976257224849e+00     9.37071076968389e-01 -6.90380097648449e-01 -2.01973207333626e-01 
 H  3.96924825472878e+00  6.97593303881406e+00  7.38064086974757e+00     3.22435330270632e+00 -1.26348431300418e+00 -4.05461999312980e-01 
 H  3.91850733633784e+00  5.09482097462551e+00  4.31665916073599e+00    -4.01498497868154e+00  1.17142903618653e+00 -2.08554452476323e+00 
 O  4.97269063917661e+00  7.10371284309875e+00  7.64923803376573e+00     5.38462777164969e-01  2.88082308344494e-01 -7.02041496632583e-01 
 H  2.27012913156254e+00 -1.00594166608777e+00  2.84951059613862e+00    -2.87858352588248e+00  1.24095384950172e+00  2.40175354017620e+00 
 H  3.54110865939849e+00  8.70591470456219e+00  1.79132805101804e+00    -2.61863392171031e+00 -3.08309780646443e-01  1.59945743680439e+00 
 O  4.01079860066883e+00  1.01883818221646e+01  7.26538713331752e+00    -5.53061434517294e-01  3.53865784850135e-01  7.05815334735598e-02 
 H  1.35236942424876e+00  8.50956202960988e-01 -4.85642001801046e-02     1.34179529448196e+00  6.64714597283950e-01 -5.24311485158163e-01 
 H  7.10326497983657e+00  4.56749782674161e+00  5.56652392162477e-01     9.87209612935183e-01 -1.36660963079508e+00 -3.30805759629472e+00 
 O  7.73060282545646e+00  4.13896580512644e+00  1.03540144690270e+00     7.31437376759826e-01 -1.02419424587149e-01  2.75756775475846e-01 
 H -1.60924383690756e-01  1.14633741644294e+00  1.93697263141840e+00    -3.19163859206065e+00 -8.13696240909010e-01 -6.73949338131505e-01 
 H  8.35572342377058e+00  7.93939265261814e+00  3.89651736093882e+00    -1.48449361446104e+00 -3.22291745258043e+00  5.38539689860500e-01 
 O  7.72400462343965e+00  6.37286637545587e+00  6.51254274339453e+00     5.12422416137240e-01  6.15998212647317e-02  1.06351195444608e+00 
 H  4.36265505058284e+00  1.09856230415553e+01  7.03980063635241e+00    -3.09923479609758e-01 -1.54755760264089e+00 -5.38072434268089e+00 
 H  6.08623377187007e-01  6.09146343042091e+00  3.29088426127934e+00    -3.77183919575638e+00  2.43358692237189e+00 -7.66425529584815e-01 
 O  5.76611290824172e+00  4.13734600952224e+00  8.52056972207862e+00     1.27703633127619e-01  1.28107837782398e-01 -3.89057574635711e-03 
 H  7.22612495050782e+00 -5.57080155015433e-01  6.32764116455438e+00     2.04188462943308e-01  8.52251324547978e-01 -1.06042984947190e+00 
 H  5.68424223645240e+00  2.51297141750304e+00  3.15161314487974e+00    -2.34021975893664e+00  1.24281968264265e+00 -9.86597815145560e-01 
 O  5.34193935652727e+00  1.10029469771915e+00  3.69693367241567e+00     6.60744364035979e-02 -1.18649339239390e-01  2.99051751952535e-01 
 H -7.04308943090269e-01  5.66526538746210e+00  3.85865497626855e+00     8.46764761346897e-01  2.71703359294872e+00 -1.12280578236322e+00 
 H  7.19550485673160e-01  1.96503074216064e+00  3.87545057921565e+00    -2.99521259495682e+00  3.19600958080248e+00  9.62260499642978e-01 
 O  2.44663510464673e+00  2.23280195867785e-01  8.85571012669474e-01    -2.28493240793109e-01 -8.28156642239202e-02  6.64183463397599e-01 
 H  4.28867792087277e+00  2.47731836776087e+00  1.88901771026755e+00    -3.43120706235864e-01  3.68603717839946e+00 -6.59707729679826e-01 
 H  5.20931862955071e+00  1.94458681991315e+00  6.51037385514995e-01    -9.79775658263273e-01  9.14008736921369e-01 -1.34193189859105e+00 
 O  6.16915253677366e+00  5.69712314850465e+00  4.47732117093637e+00     4.27764749920251e-01 -7.90488202412445e-03  5.59849164533617e-01 
 H  7.21406522944850e+00 -1.34389770887351e+00  2.59206714779912e+00    -2.67604564058070e+00  2.18102605433677e-01 -5.51711989445383e-01 
 H  2.09204802292935e+00  7.46483131087571e+00  7.08222814142079e+00     1.83859226732106e+00  1.60502933634066e+00  1.06913928086476e+00 
 O  1.37214505408440e+00  3.73697431903600e+00  1.39462181594109e+00    -7.62030392190219e-01 -2.07025852420139e-01  2.21657177986192e-01 
 H  2.70468976795018e+00  1.92997092819543e+00  7.69961894048222e+00     3.31941415212854e-01  2.11477414344724e+00 -1.83154385979225e-01 
 H  4.60828121912541e+00  4.17053336128160e-01  3.72810960392901e+00     9.55023591012678e-01  1.66549991350209e+00  4.37324291071105e-01 
 O  7.82650614356623e+00  3.57283033272742e+00  5.05342690545647e+00    -2.44992831176224e-01  3.98564709285058e-02 -8.96482407921580e-01 
 H  3.28494751526949e+00 -2.80950111894530e-01 -1.11415713168062e+00     1.97178639357698e+00 -1.89272116185398e+00 -8.94266018486394e-01 
 H  2.35971486932193e+00  5.84978752791991e+00  4.82756842525339e+00     9.78583863459803e-01 -1.92149482133767e+00 -3.00107499837584e+00 
 O  6.13508703214782e+00  2.97566211339879e+00  2.33114940513089e+00    -5.67943560400555e-01  8.34379361747727e-02 -1.20656816757037e-01 
 H  3.53502128493875e+00  3.50851485300343e+00  3.19921161309655e+00     9.22468960334637e-01 -1.45409451850277e-03 -2.41285186756151e+00 
 H  6.42755722970416e+00  6.47318931504036e+00  3.89135870687375e+00    -1.08617715728747e+00 -2.18552493340771e+00  1.10862235495153e+00 
