   96
17.21826 17.21826 17.21826
 O  1.69599  7.66765  7.67637    -0.47827  0.58271  0.65819
 H 17.15619  7.43944 15.62491     1.60004 -3.15302 -2.82846
 H  1.64804  4.29011  9.89370    -1.85856 -1.97362  1.58178
 O  8.71771  8.53693  6.35100    -0.00942  0.01396  0.46098
 H  2.81608  4.62598  8.56296     1.54054 -0.79730 -0.62699
 H  8.66509  4.01210  6.01588    -1.52281  0.83491 -0.75717
 O  0.19502  6.84063  3.18806    -0.66602 -1.08696  0.55293
 H  1.37065  1.65424  7.37284     2.20718  0.69976  0.16515
 H  4.00510  8.01762  8.38246    -0.61375  1.52973  0.87824
 O 16.86800  2.13101  2.15756    -0.85523 -0.32237 -0.59607
 H  5.83066  4.00137  9.22597    -2.11943  2.03988 -0.77158
 H  4.56560  9.95701  7.73766     4.47162 -0.57892 -0.32800
 O  1.81775  4.30124  8.89057    -0.04840  0.24776  0.73127
 H  3.82887  3.93197  3.33420    -2.65421  1.92676 -2.36120
 H  1.28133  7.07543 15.33956     1.04270  0.13166 -1.65535
 O  8.59553  1.35226  9.11357     0.41521  0.04149  0.61883
 H 17.13028  4.86548  1.40982    -1.40227  1.48525  0.55854
 H  5.40971  3.82159  5.55166     0.28757  0.46402 -1.27396
 O 16.51300  5.11604  4.02483    -0.08865 -0.00605 -0.08093
 H  5.90187 16.31939  5.44589     0.07404  0.71320 -0.46218
 H  6.62773  8.75441  1.68055    -4.65609 -1.24989 -4.20634
 O  2.97826  5.06318  0.95482     0.13803 -0.53239 -0.40151
 H  7.14221  0.90226 17.17987    -3.96138 -2.50078 -0.96315
 H  6.00269  7.71469  4.10934     1.05962 -3.31916 -0.95312
 O  5.77798  1.16247 16.98320    -0.30176 -0.49905 -1.27206
 H  5.34629  4.37173  3.93291     1.08301 -0.32865  0.20960
 H 17.20357  7.52504  3.76046    -0.42289  1.06349  0.84478
 O  2.41367  1.21700  4.30306    -0.81059 -0.90596 -0.27795
 H  8.21981  6.88199  9.01430     0.33101  2.29897  0.01960
 H  8.53482  5.42910  5.32881     0.69197 -1.98693 -0.04822
 O  3.73884  1.61242  1.44571    -0.05473 -0.39322 -0.38402
 H  9.14046  2.17700  6.83041     1.90744  0.01841 -1.80768
 H  9.23624  6.54000  0.96940     2.58318  3.54354 -0.27647
 O  8.92807  1.35541  0.96214     0.75868 -0.22927 -0.10720
 H  8.20527  9.35786  6.26099     0.38400  0.77278 -0.97632
 H  7.59206  7.58240  8.00143     0.71858  0.55563  1.92919
 O  7.43340  8.32626  2.02272     0.45764 -0.04768  0.05202
 H  0.71205  3.58924 16.87176    -0.63042  1.39024 -0.01574
 H  9.21536  2.08792  9.51753    -3.07579  2.20111  0.68697
 O  5.19640  3.11093  6.30358    -0.19157  0.30738  0.40995
 H  5.33585  3.96451  7.68973    -0.56057  0.31440  1.05821
 H  8.81048  1.04426 10.09688     3.31372 -2.51292  3.61241
 O  1.29392  0.94623  6.80171    -0.44791 -0.82726 -0.34593
 H  2.86961  0.43843  3.73323     0.23338 -0.03240 -0.95362
 H  6.30118  0.83305  3.36697     0.02542  2.09063 -0.05928
 O  7.27942  7.00996  8.86505     0.07657 -0.11015  0.33690
 H  3.81115  4.63305  1.41662    -3.99332  1.31796  0.80794
 H  9.14802  1.12380 17.15399     3.23043  0.64621 -5.12473
 O  0.78651  7.82908 15.80743    -0.28178  0.69554 -1.04457
 H  5.34571  2.13648  6.32472     0.96523 -0.52852  2.91470
 H  5.06107  1.20721 16.09197    -1.66216 -0.16438  0.35915
 O  6.26632 17.19742  5.94161     0.09053 -0.79049 -0.23865
 H  6.50846  0.77019 10.40717    -1.41262 -1.47535 -1.45973
 H  2.84127  0.97491  1.12922    -1.56654  1.39131  1.20780
 O  2.59266  6.00658  5.17913    -0.27119 -0.34212  0.33529
 H  1.72310  4.58927  0.80261    -0.99741 -0.50063  0.76599
 H  1.77453  1.10096  5.05382     1.34011  0.00667 -0.68298
 O  4.74373  4.40807  3.06806     0.15500 -0.00640 -0.24756
 H  6.53051  5.41819  8.68246    -0.12608 -1.39736 -0.91741
 H  7.93749  3.74123  3.23291     1.67111 -0.50215 -0.69401
 O  5.43978  9.41494  1.63016     0.15239  0.83505  0.30023
 H  0.86212  7.25239  7.67819     0.93905 -0.01163 -0.74083
 H  3.27339  5.30178  5.56329     1.24303  1.93059 -2.87034
 O  4.60067  8.79590  8.09489    -0.16792  0.56513  0.59763
 H 13.58981  6.68672  4.56653    -1.83147 -4.74536  0.36989
 H  4.56372  9.81657  1.20817    -1.32574  4.20784 -2.65885
 O  4.75656 10.96279  7.66760     0.86521  1.36040  0.60302
 H  8.06031  3.98061  9.86085    -1.85168  2.37879 -3.24260
 H 10.60873  5.06942  1.31527    -1.89948  2.87785 -0.63961
 O  9.11739  5.64240  0.75375     0.55400  0.11332  0.22640
 H 16.33496  2.04770  1.35117    -2.45069  1.48285 -1.34275
 H  7.80769  9.05400  2.57076     0.93098 -0.22708 -0.18981
 O  8.51455  5.16537  6.32128     0.79354 -0.58954  0.47740
 H  5.45781 11.04101  6.89149    -2.25063  1.78044 -0.29502
 H 16.40584  4.12553  4.15289    -3.82774 -0.08017  1.18673
 O  5.76593  4.56540  8.45399     0.79727  0.13973  0.03826
 H  6.61637 16.59159  6.71962     1.25964  2.13167  1.49884
 H  8.95146  2.59425  4.27154     0.06368 -1.31616 -0.54646
 O  5.31135  0.53142  3.27613     0.21961 -0.46786 -0.00703
 H  0.03075  5.80453  3.65108    -0.94958  3.89996  2.60419
 H  0.49015  1.69611  2.30098     0.82423 -0.76262 -1.08931
 O  1.95791  0.43918  1.02903    -0.25462  0.00012  0.26344
 H  4.31089  0.93629  1.73918     0.64562  0.14788 -2.10947
 H  5.46366  1.70876  0.64597    -1.78591 -0.26034 -1.31080
 O  6.82994  7.17082  3.92526     0.61539  0.65976  0.20901
 H  9.29190  1.35479  1.95917    -0.50638  2.83622  4.69775
 H  1.71657  8.16695  8.41796    -0.36694 -0.45515  2.51656
 O  0.78016  4.35678  0.28823    -0.35175  0.11341 -0.71370
 H  0.39750  0.13102  5.99488    -0.67030  1.78356 -0.18277
 H  5.23778  0.10703  4.15806    -0.68890  0.30344 -1.95572
 O  9.04605  2.66907  5.93379    -0.13269 -0.26144 -0.18173
 H  1.90648  0.52949  1.95737    -2.13193 -2.33179 -0.99665
 H  1.74858  6.15841  4.82591    -0.99705 -0.49182  0.77522
 O  8.40777  2.87601  3.49623     0.70302  0.42876  0.58092
 H  3.25768  5.66654  0.14065    -1.73952 -0.26430 -4.44254
 H  6.95523  7.61821  3.04502    -0.05462  1.60205 -1.09336
